@<TRIPOS>MOLECULE
mol
37500 30000
SMALL
USER_CHARGES


@<TRIPOS>ATOM
1 C 218.09015517754727 152.98243226717983 117.23623930095957 C 0.0 **** -0.24
2 H 218.68307636940804 153.14447893079443 118.13611689636187 H 0.0 **** 0.06
3 H 218.7542753281333 152.81194121053517 116.389209447419 H 0.0 **** 0.06
4 H 217.4741071924758 153.86078332962273 117.04463909364617 H 0.0 **** 0.06
5 H 217.44896762929045 152.1120035133339 117.37629166131168 H 0.0 **** 0.06
6 C 36.65900420096557 57.199442652114044 40.65333111278841 C 0.0 **** -0.24
7 H 35.74192263422131 57.67359460162183 40.304486339034156 H 0.0 **** 0.06
8 H 37.32778314980985 57.0335809923933 39.80804773861243 H 0.0 **** 0.06
9 H 36.41883409811399 56.24325186301792 41.11907014921948 H 0.0 **** 0.06
10 H 37.14759422291206 57.84652957210923 41.38228972725733 H 0.0 **** 0.06
11 C 93.23068233738019 5.942435028174643 95.0270543901025 C 0.0 **** -0.24
12 H 93.75430123121069 4.987425263299642 95.06578359404344 H 0.0 **** 0.06
13 H 92.61881631551037 6.057420780794828 95.92261488766647 H 0.0 **** 0.06
14 H 92.59098096591154 5.970412530285017 94.14497402840317 H 0.0 **** 0.06
15 H 93.9570831054669 6.753319181383091 94.97596463786189 H 0.0 **** 0.06
16 C 284.1200661155676 182.40036307015953 136.21729958411083 C 0.0 **** -0.24
17 H 284.121637522921 181.36887380730371 136.5693319410307 H 0.0 **** 0.06
18 H 283.24729873609175 182.91871982576663 136.6145787376452 H 0.0 **** 0.06
19 H 284.0861869737546 182.411777872679 135.1274756258539 H 0.0 **** 0.06
20 H 285.02664356845776 182.90121936137888 136.55778108132037 H 0.0 **** 0.06
21 C 99.26706262214884 251.2911258271958 184.40740552601977 C 0.0 **** -0.24
22 H 99.23899835777112 250.2092900144035 184.2786110402928 H 0.0 **** 0.06
23 H 99.7803340558037 251.74526221910742 183.55918743634896 H 0.0 **** 0.06
24 H 99.79905459388755 251.53372031131008 185.3266562006247 H 0.0 **** 0.06
25 H 98.24900642175078 251.67623902063784 184.46404253124035 H 0.0 **** 0.06
26 C 285.8599554247961 174.48398753534508 289.8233048111253 C 0.0 **** -0.24
27 H 286.38016717149463 174.50825070329336 290.78176732741395 H 0.0 **** 0.06
28 H 286.43742692417226 175.03838327761963 289.08321469474504 H 0.0 **** 0.06
29 H 284.87626609289987 174.9387313003187 289.9329120601232 H 0.0 **** 0.06
30 H 285.74875463322434 173.44994833399375 289.49845460012574 H 0.0 **** 0.06
31 C 166.75346602943597 135.24339247444937 192.51695904960525 C 0.0 **** -0.24
32 H 166.23049987138154 134.42418012860855 193.01110870605817 H 0.0 **** 0.06
33 H 167.81969857235794 135.02154626951233 192.4762924294546 H 0.0 **** 0.06
34 H 166.59406832011376 136.16550050408387 193.07526944600733 H 0.0 **** 0.06
35 H 166.36768894052125 135.36050598763563 191.5037572843044 H 0.0 **** 0.06
36 C 94.96797106223147 128.67299250728104 168.94976632693465 C 0.0 **** -0.24
37 H 95.81487784225331 128.49934176756366 169.61376909605826 H 0.0 **** 0.06
38 H 94.07825969218632 128.19909603118992 169.36434943999683 H 0.0 **** 0.06
39 H 95.18283496261836 128.24846529911517 167.96866056931572 H 0.0 **** 0.06
40 H 94.79756823726402 129.74543042886768 168.85193415247528 H 0.0 **** 0.06
41 C 254.7933412318917 20.710191087620927 37.09655377532721 C 0.0 **** -0.24
42 H 254.75807529842584 20.221591125115665 38.06932545060056 H 0.0 **** 0.06
43 H 255.08053326250135 19.985512571303957 36.334480198302856 H 0.0 **** 0.06
44 H 255.5232575132696 21.519761217545522 37.1226455417773 H 0.0 **** 0.06
45 H 253.80991843724433 21.116361147573826 36.85909885117445 H 0.0 **** 0.06
46 C 0.33481694359380754 307.9419367231277 95.90283404451304 C 0.0 **** -0.24
47 H 0.1936052316937662 307.94131870677614 96.98387068708158 H 0.0 **** 0.06
48 H 1.3522337461187703 308.2565152427448 95.67025340199825 H 0.0 **** 0.06
49 H -0.3733283029577308 308.6325053172885 95.44532374458427 H 0.0 **** 0.06
50 H 0.16627784455717176 306.938206962578 95.5141536042529 H 0.0 **** 0.06
51 C 180.7502626167173 123.37962291662438 266.1916319292414 C 0.0 **** -0.24
52 H 181.81801998407104 123.29387970631575 266.3932668873782 H 0.0 **** 0.06
53 H 180.2452322948988 122.47180509791409 266.5206068962444 H 0.0 **** 0.06
54 H 180.59362294396624 123.51621190281969 265.12084025048256 H 0.0 **** 0.06
55 H 180.34678799199816 124.23727676067557 266.72988787285783 H 0.0 **** 0.06
56 C 295.44662408687924 38.03656667321047 248.3328856968052 C 0.0 **** -0.24
57 H 295.28861772764157 37.00321948433373 248.0222107332565 H 0.0 **** 0.06
58 H 296.27635327220776 38.08009394606847 249.03834810197822 H 0.0 **** 0.06
59 H 294.5422998338519 38.41364121831947 248.80970828368524 H 0.0 **** 0.06
60 H 295.6786760758467 38.64561022383202 247.45927698735488 H 0.0 **** 0.06
61 C 176.82253577242864 313.2538352142589 299.88943219185023 C 0.0 **** -0.24
62 H 177.37497109871458 312.44235189566854 299.4155794885549 H 0.0 **** 0.06
63 H 177.38966493996992 313.63111950072073 300.7394559664153 H 0.0 **** 0.06
64 H 175.8565300236005 312.8832003147892 300.2315155325983 H 0.0 **** 0.06
65 H 176.66936985131292 314.0569849129512 299.16817626305743 H 0.0 **** 0.06
66 C 107.33025655582148 33.40907490932523 259.6808677373537 C 0.0 **** -0.24
67 H 106.48739494321785 33.56685391206423 260.35420156308464 H 0.0 **** 0.06
68 H 107.80953184878925 32.45807171092895 259.9166546482686 H 0.0 **** 0.06
69 H 108.04916629677189 34.21936052596493 259.80282000060765 H 0.0 **** 0.06
70 H 106.97317814408399 33.390530669156306 258.6514443713219 H 0.0 **** 0.06
71 C 155.36602944874215 180.15617836156304 313.27547948408596 C 0.0 **** -0.24
72 H 154.89091461635422 180.00737615571126 312.3058021409787 H 0.0 **** 0.06
73 H 156.34896619673196 179.6851810480013 313.2736823815686 H 0.0 **** 0.06
74 H 154.74945336128707 179.7089861030758 314.05498147944814 H 0.0 **** 0.06
75 H 155.47534771788713 181.2236534397751 313.4662485125353 H 0.0 **** 0.06
76 C 12.375668662388819 3.524215573583959 181.93391591145155 C 0.0 **** -0.24
77 H 11.567111690478953 4.060853326609035 182.43154217772144 H 0.0 **** 0.06
78 H 13.23331416406495 4.186351079087714 181.8164292555888 H 0.0 **** 0.06
79 H 12.038241074737186 3.1880414384821307 180.9529679370179 H 0.0 **** 0.06
80 H 12.661847874208888 2.661231596101814 182.5351566813584 H 0.0 **** 0.06
81 C 179.79027140761855 283.5651881173684 288.1949768777105 C 0.0 **** -0.24
82 H 179.02121890061568 282.82204647630607 288.40990268072557 H 0.0 **** 0.06
83 H 179.33663224825216 284.4262522524189 287.704819336167 H 0.0 **** 0.06
84 H 180.54358917363476 283.1272577162925 287.54022451492835 H 0.0 **** 0.06
85 H 180.2588085870408 283.88155050544003 289.1269635199668 H 0.0 **** 0.06
86 C 33.02349435755306 261.00245915381834 160.28845563312962 C 0.0 **** -0.24
87 H 33.72227896112824 261.8310567132529 160.4002478911558 H 0.0 **** 0.06
88 H 32.60297070209788 261.0157335466011 159.28256796599175 H 0.0 **** 0.06
89 H 32.221523481336874 261.10371337114975 161.02008166447638 H 0.0 **** 0.06
90 H 33.54704642965501 260.060582558294 160.4521139851376 H 0.0 **** 0.06
91 C 282.5808786234513 77.02156162686524 273.2823991198801 C 0.0 **** -0.24
92 H 283.63467858820803 77.27703703534613 273.17058096117955 H 0.0 **** 0.06
93 H 282.48346112366636 75.94815279867285 273.45045469552986 H 0.0 **** 0.06
94 H 282.04204488697565 77.29786063287855 272.37648554214746 H 0.0 **** 0.06
95 H 282.16407854163344 77.5608713433939 274.1322632653407 H 0.0 **** 0.06
96 C 251.66965660246638 240.94919777511114 257.0986354417699 C 0.0 **** -0.24
97 H 250.84098128431125 241.46033783966797 256.60702135694186 H 0.0 **** 0.06
98 H 252.35443483441563 241.68738972641893 257.51619354128235 H 0.0 **** 0.06
99 H 252.19800255411826 240.33203064800702 256.37182690893263 H 0.0 **** 0.06
100 H 251.28246817638998 240.3182113745176 257.89804874569813 H 0.0 **** 0.06
101 C 195.53695824852252 157.34329150508268 115.44832120266364 C 0.0 **** -0.24
102 H 196.22869128223164 157.18633157177754 114.62140141570589 H 0.0 **** 0.06
103 H 194.65325410098512 156.72167043877585 115.30615025964045 H 0.0 **** 0.06
104 H 195.24274264294087 158.39282110104125 115.48060369250848 H 0.0 **** 0.06
105 H 196.0247642134741 157.07386574051327 116.3848864412189 H 0.0 **** 0.06
106 C 192.7848190031031 134.67386353976428 164.0675260023695 C 0.0 **** -0.24
107 H 192.71584361246363 133.99571243393063 163.21625411365062 H 0.0 **** 0.06
108 H 191.90091469757533 135.31101711494404 164.09655788501726 H 0.0 **** 0.06
109 H 193.67618487161775 135.29156222486586 163.96775344340648 H 0.0 **** 0.06
110 H 192.84605007315946 134.09419648358005 164.98918711960215 H 0.0 **** 0.06
111 C 139.47333119240832 156.20202801350433 306.23624144706275 C 0.0 **** -0.24
112 H 138.42890768857367 155.91070216348282 306.1236530600898 H 0.0 **** 0.06
113 H 139.536815296989 157.28394038391258 306.35282935986515 H 0.0 **** 0.06
114 H 140.0327914115483 155.8980305716667 305.3517070117881 H 0.0 **** 0.06
115 H 139.89299643067167 155.71647417939562 307.1175750469522 H 0.0 **** 0.06
116 C 223.34554987161818 306.30966694554076 211.7486637547499 C 0.0 **** -0.24
117 H 223.81445789929563 307.2752716562115 211.55981420224612 H 0.0 **** 0.06
118 H 223.60077195225193 305.9723236431562 212.75424296344363 H 0.0 **** 0.06
119 H 223.70492117982596 305.58316818634137 211.02001626478136 H 0.0 **** 0.06
120 H 222.2638233221574 306.4071158241099 211.6620742992526 H 0.0 **** 0.06
121 C 245.39427416254614 55.405830525947096 259.38161542465474 C 0.0 **** -0.24
122 H 245.63385204986577 56.40420441838796 259.0154319223591 H 0.0 **** 0.06
123 H 245.07532980637643 55.46776301245285 260.42251033715604 H 0.0 **** 0.06
124 H 246.27779342050798 54.77090740705006 259.3096591359462 H 0.0 **** 0.06
125 H 244.59115922462445 54.98036393649846 258.7798173455415 H 0.0 **** 0.06
126 C 136.56207983570255 81.25683270345706 95.05727233582905 C 0.0 **** -0.24
127 H 137.20779069071708 81.07207568708989 94.19849664411367 H 0.0 **** 0.06
128 H 136.15484031323913 82.2663153528562 94.99453394927488 H 0.0 **** 0.06
129 H 137.1397453845574 81.15421638439389 95.97561200735367 H 0.0 **** 0.06
130 H 135.74481399478086 80.53472651134118 95.05851659667778 H 0.0 **** 0.06
131 C 249.36263175017962 120.67782088328039 104.30152938165011 C 0.0 **** -0.24
132 H 249.11608230131986 121.70900861691501 104.5548583735675 H 0.0 **** 0.06
133 H 249.4560141108562 120.09193692087027 105.21611457111854 H 0.0 **** 0.06
134 H 250.3060744261427 120.6534737281356 103.75592651847398 H 0.0 **** 0.06
135 H 248.57211751761136 120.25780665373881 103.67945250059765 H 0.0 **** 0.06
136 C 172.3348345384456 290.4954701616417 218.9576816256985 C 0.0 **** -0.24
137 H 172.54239697901932 291.500614244294 219.32226158711492 H 0.0 **** 0.06
138 H 171.25734895631518 290.32569782741666 218.9528305933818 H 0.0 **** 0.06
139 H 172.81501462447244 289.76569981936774 219.60898238493763 H 0.0 **** 0.06
140 H 172.7231716861338 290.3894269663999 217.94497019182094 H 0.0 **** 0.06
141 C 109.3663099060849 225.48780635151903 240.77870595193332 C 0.0 **** -0.24
142 H 109.4392114761215 226.31402967105961 240.07154349748146 H 0.0 **** 0.06
143 H 109.51054859337842 224.54450859784063 240.2511276138917 H 0.0 **** 0.06
144 H 108.38327238740902 225.4962746092126 241.2475437352417 H 0.0 **** 0.06
145 H 110.13495098929565 225.59709133920558 241.54450555467332 H 0.0 **** 0.06
146 C 217.39681463615392 39.20854811374474 4.744582156959382 C 0.0 **** -0.24
147 H 217.50024635016115 38.475353448059735 3.94499050460513 H 0.0 **** 0.06
148 H 218.3706974549424 39.65024675692493 4.959581974013531 H 0.0 **** 0.06
149 H 217.01442129801327 38.718842988545646 5.639702021288429 H 0.0 **** 0.06
150 H 216.70405182711096 39.989685009976625 4.432897723885446 H 0.0 **** 0.06
151 C 190.26120570059487 143.11351095794276 171.03131496360965 C 0.0 **** -0.24
152 H 191.05813689935735 143.71197689101572 171.4714950818045 H 0.0 **** 0.06
153 H 190.37362311014658 142.07395554530416 171.34205316208204 H 0.0 **** 0.06
154 H 190.31786910856698 143.17585333327668 169.94453391998962 H 0.0 **** 0.06
155 H 189.29536103969406 143.49054515197855 171.36737248364307 H 0.0 **** 0.06
156 C 254.83822190976014 113.94321728977692 19.78098774964144 C 0.0 **** -0.24
157 H 254.9387999236934 113.86909267291861 20.863335637180057 H 0.0 **** 0.06
158 H 254.9124107876441 114.98869345653242 19.480263708459916 H 0.0 **** 0.06
159 H 253.87026678224805 113.54468172068692 19.477569523410068 H 0.0 **** 0.06
160 H 255.63279601859958 113.37033689661587 19.303056384290585 H 0.0 **** 0.06
161 C 109.36379262304527 268.09255795473325 296.9330801771084 C 0.0 **** -0.24
162 H 108.80588479144294 267.16756826748195 297.07317754544795 H 0.0 **** 0.06
163 H 110.08218167610914 267.96514060964046 296.12275348844923 H 0.0 **** 0.06
164 H 109.89322350629689 268.3394701637702 297.85369065603464 H 0.0 **** 0.06
165 H 108.67443094079283 268.8993455615697 296.68371181629493 H 0.0 **** 0.06
166 C 304.66038395690464 184.43562190346108 95.25759798064357 C 0.0 **** -0.24
167 H 304.9388683508517 184.4012080019911 94.2037780335312 H 0.0 **** 0.06
168 H 303.6832347102895 184.90914312025842 95.35809356117474 H 0.0 **** 0.06
169 H 305.4018597917658 185.0105884456865 95.81060648236308 H 0.0 **** 0.06
170 H 304.61606367586137 183.4219799568205 95.65451744550145 H 0.0 **** 0.06
171 C 310.1429182529184 227.48684252343256 183.87624999981364 C 0.0 **** -0.24
172 H 309.1405578504987 227.4949916296209 183.448223639403 H 0.0 **** 0.06
173 H 310.4375394417976 228.50465794846733 184.13212783416105 H 0.0 **** 0.06
174 H 310.84498687682685 227.07695637700618 183.15033861189147 H 0.0 **** 0.06
175 H 310.14868824302835 226.87079837962642 184.77572021734977 H 0.0 **** 0.06
176 C 275.3266019300507 282.6967516587057 157.01881984871426 C 0.0 **** -0.24
177 H 275.0244656709449 282.07049159648216 156.17872558585458 H 0.0 **** 0.06
178 H 276.3944706228608 282.9050335377758 156.95071357232757 H 0.0 **** 0.06
179 H 275.1179687478937 282.1751958535493 157.95287931521523 H 0.0 **** 0.06
180 H 274.7704055376959 283.6328407412958 156.99239742487663 H 0.0 **** 0.06
181 C 175.6508626401437 159.3414972517142 141.95195391898812 C 0.0 **** -0.24
182 H 175.31941544329317 160.36726677199715 142.11783340396704 H 0.0 **** 0.06
183 H 176.62587295373072 159.19504568414533 142.4172507907937 H 0.0 **** 0.06
184 H 175.7269312913853 159.15354814288628 140.8812032287942 H 0.0 **** 0.06
185 H 174.93067068162338 158.6522678824981 142.39185818755422 H 0.0 **** 0.06
186 C 172.39015304398094 20.796659626025132 75.97166986887572 C 0.0 **** -0.24
187 H 173.06828367324437 21.336754602440124 75.31001238823745 H 0.0 **** 0.06
188 H 172.9690518771859 20.16736277920711 76.64859525260076 H 0.0 **** 0.06
189 H 171.72302436921382 20.173089759221796 75.37769403083385 H 0.0 **** 0.06
190 H 171.80268150503935 21.509258859368515 76.55011508744664 H 0.0 **** 0.06
191 C 29.900033341924825 110.69189271306209 5.811006036106718 C 0.0 **** -0.24
192 H 30.060238094360045 109.67207302307924 5.4618505049568284 H 0.0 **** 0.06
193 H 30.494601521606114 111.37897863628069 5.207594923368831 H 0.0 **** 0.06
194 H 30.20071851564572 110.77038965048715 6.855693073620273 H 0.0 **** 0.06
195 H 28.84388679057048 110.94643501527443 5.716554815135993 H 0.0 **** 0.06
196 C 14.227371785691034 25.56727735622627 232.36507673669075 C 0.0 **** -0.24
197 H 13.69983416389536 24.622787746084953 232.50052704703558 H 0.0 **** 0.06
198 H 14.206541855399308 26.131577156621205 233.2981122157416 H 0.0 **** 0.06
199 H 13.739173158901906 26.145688818826955 231.5794727400483 H 0.0 **** 0.06
200 H 15.260295419549678 25.369010022542653 232.0813406359744 H 0.0 **** 0.06
201 C 128.43189648230037 9.441676037227708 265.5289593846639 C 0.0 **** -0.24
202 H 128.99645598307546 10.37256083578923 265.477419001876 H 0.0 **** 0.06
203 H 129.03276123523403 8.629834775598056 265.119067124806 H 0.0 **** 0.06
204 H 127.51305881605151 9.541640593974947 264.95121309072067 H 0.0 **** 0.06
205 H 128.18583290953907 9.22386052955801 266.5686898674805 H 0.0 **** 0.06
206 C 155.2510231967405 15.074977104626157 260.3273750710153 C 0.0 **** -0.24
207 H 156.05124085623794 15.609625291831819 259.81485056742406 H 0.0 **** 0.06
208 H 155.0235850215813 15.576098849819246 261.267621962832 H 0.0 **** 0.06
209 H 155.56911289538618 14.051610162786147 260.52777816043033 H 0.0 **** 0.06
210 H 154.3623570562703 15.062194815364336 259.69642067225277 H 0.0 **** 0.06
211 C 183.9527593130618 261.77012233016006 252.8588271023607 C 0.0 **** -0.24
212 H 184.32943254351756 260.75359357026434 252.9728486275557 H 0.0 **** 0.06
213 H 183.34171856929623 262.02964826875257 253.7228524739924 H 0.0 **** 0.06
214 H 183.34929862097886 261.83435922444306 251.95350994052748 H 0.0 **** 0.06
215 H 184.7913155992398 262.4627118892834 252.7854349496457 H 0.0 **** 0.06
216 C 268.15804829890726 311.1739523031196 64.41854561341731 C 0.0 **** -0.24
217 H 267.3378582797418 311.8582849765403 64.2025260017559 H 0.0 **** 0.06
218 H 268.9704262184866 311.3451137459147 63.71217869268952 H 0.0 **** 0.06
219 H 267.8066981194852 310.1456393763429 64.32793142903503 H 0.0 **** 0.06
220 H 268.5168097527579 311.3465791046128 65.43395516781911 H 0.0 **** 0.06
221 C 294.70676955221 233.76545523079974 98.62245272744673 C 0.0 **** -0.24
222 H 295.66652132231974 233.29687591352692 98.40525624482189 H 0.0 **** 0.06
223 H 294.68080364346565 234.76135005640793 98.17935271494963 H 0.0 **** 0.06
224 H 294.5773045929059 233.8443489385135 99.70204939240622 H 0.0 **** 0.06
225 H 293.90370343732116 233.15962302318655 98.20368489471787 H 0.0 **** 0.06
226 C 52.70640940734927 79.53198934031255 91.01724279712178 C 0.0 **** -0.24
227 H 52.810951016373906 78.45224065804979 91.11879170432516 H 0.0 **** 0.06
228 H 51.76747744750725 79.76015195748676 90.51282536603003 H 0.0 **** 0.06
229 H 53.53859995121891 79.92314423484112 90.43202395192807 H 0.0 **** 0.06
230 H 52.7099069415965 79.99186256002235 92.0053980168552 H 0.0 **** 0.06
231 C 35.01599960148869 117.78207373124226 44.396831171425305 C 0.0 **** -0.24
232 H 35.09349824281509 116.93546283400201 45.07909966685497 H 0.0 **** 0.06
233 H 36.012231265883486 118.1738719421852 44.19094046273534 H 0.0 **** 0.06
234 H 34.406249211564045 118.56179165045978 44.85322001673882 H 0.0 **** 0.06
235 H 34.55271945174286 117.45655312097745 43.46512832845082 H 0.0 **** 0.06
236 C 158.00203028392866 164.3986143745597 42.23884604761679 C 0.0 **** -0.24
237 H 157.57023926833966 164.38950837924358 41.23928917651824 H 0.0 **** 0.06
238 H 157.58854715355602 163.57438116884845 42.821229666661424 H 0.0 **** 0.06
239 H 157.76675071189447 165.3438194379642 42.72840734363197 H 0.0 **** 0.06
240 H 159.08425359144695 164.2866374729286 42.16824690503029 H 0.0 **** 0.06
241 C 45.04149030874194 216.8279280379143 38.57233208957777 C 0.0 **** -0.24
242 H 44.62810033956106 216.15037386022493 39.31989307226834 H 0.0 **** 0.06
243 H 44.5993641536264 216.60838397674138 37.59931809759479 H 0.0 **** 0.06
244 H 46.121131886200004 216.6951802623306 38.51971619037187 H 0.0 **** 0.06
245 H 44.813773074718426 217.85673724283313 38.850245436879874 H 0.0 **** 0.06
246 C 219.22383699385796 26.444296800092246 87.16340256760287 C 0.0 **** -0.24
247 H 218.3771445724355 25.77404755913028 87.31177119159486 H 0.0 **** 0.06
248 H 219.81408071576482 26.49181490257638 88.07856961735936 H 0.0 **** 0.06
249 H 218.85950158448458 27.439764662451324 86.91221580735373 H 0.0 **** 0.06
250 H 219.84529538446873 26.06904365525415 86.34956603511509 H 0.0 **** 0.06
251 C 218.80214811988947 219.0029570571478 109.23600143238761 C 0.0 **** -0.24
252 H 218.6932276119627 219.82243676923642 109.94565815891838 H 0.0 **** 0.06
253 H 219.71369599605927 218.44868671871166 109.4589525708696 H 0.0 **** 0.06
254 H 218.8593066434047 219.4049975828822 108.22348640644992 H 0.0 **** 0.06
255 H 217.94283560902934 218.33745490349003 109.31425895019683 H 0.0 **** 0.06
256 C 179.48250162925092 303.6669983927819 211.98125154983927 C 0.0 **** -0.24
257 H 178.52520852786535 303.17027535155864 211.82823363799304 H 0.0 **** 0.06
258 H 179.68879951039526 304.32565903297393 211.13756814022855 H 0.0 **** 0.06
259 H 180.27119006913398 302.9190426489365 212.06042287249971 H 0.0 **** 0.06
260 H 179.44514479941677 304.2536980753302 212.8994314353971 H 0.0 **** 0.06
261 C 268.07201895999424 158.20720061621807 124.6347487498548 C 0.0 **** -0.24
262 H 268.3930135346202 157.80958341130685 125.59726284791503 H 0.0 **** 0.06
263 H 268.0159644765016 159.29387091769746 124.6910328192813 H 0.0 **** 0.06
264 H 267.0914054084335 157.8049604771158 124.3840711191371 H 0.0 **** 0.06
265 H 268.7900096580891 157.91974647678188 123.86615989450698 H 0.0 **** 0.06
266 C 76.83313034862744 220.23231343866485 22.105404363599547 C 0.0 **** -0.24
267 H 77.88901681069248 220.00439404467338 21.957936125633523 H 0.0 **** 0.06
268 H 76.73226584959656 221.0089627322023 22.86371602705924 H 0.0 **** 0.06
269 H 76.31081412818386 219.33385980352125 22.432513178042427 H 0.0 **** 0.06
270 H 76.40210409738543 220.58146402445587 21.166529721299128 H 0.0 **** 0.06
271 C 33.86756830135789 250.51017837978128 14.860594804860867 C 0.0 **** -0.24
272 H 34.78796139125461 250.31260633156054 14.311384285689726 H 0.0 **** 0.06
273 H 34.10260822104533 250.68623361881484 15.910356749074907 H 0.0 **** 0.06
274 H 33.203199892591556 249.65015734670573 14.776275233156198 H 0.0 **** 0.06
275 H 33.37786294490735 251.39001482801322 14.443855274837375 H 0.0 **** 0.06
276 C 114.2011300631982 113.01691636863995 48.204308861075845 C 0.0 **** -0.24
277 H 114.58506343321605 113.66725032450447 48.98956121416677 H 0.0 **** 0.06
278 H 113.6958680848391 113.61817854957832 47.448798787891576 H 0.0 **** 0.06
279 H 113.4962979248665 112.30545898410224 48.63441860990281 H 0.0 **** 0.06
280 H 115.02876289345497 112.47589161557846 47.744675889458904 H 0.0 **** 0.06
281 C 293.8886371250579 225.71769767571274 49.49594796229843 C 0.0 **** -0.24
282 H 293.3564860149383 226.40376051729845 48.83672241297623 H 0.0 **** 0.06
283 H 294.4041762171412 224.96644239000938 48.89786244237891 H 0.0 **** 0.06
284 H 293.17699338273474 225.2283617421171 50.16180897125301 H 0.0 **** 0.06
285 H 294.61572774129866 226.27388601162681 50.08833982960863 H 0.0 **** 0.06
286 C 181.98331366318882 266.56606385558644 197.54459212167058 C 0.0 **** -0.24
287 H 182.68364118319897 265.9499286111064 196.98145974726776 H 0.0 **** 0.06
288 H 181.02811734421982 266.04643367120497 197.62807157675593 H 0.0 **** 0.06
289 H 181.83749256292526 267.5148747195054 197.02658680415772 H 0.0 **** 0.06
290 H 182.38287508423565 266.753399043732 198.54064359747417 H 0.0 **** 0.06
291 C 297.6699641481831 110.06115630879128 104.6681648464261 C 0.0 **** -0.24
292 H 297.3879136741441 109.0587705931014 104.99049039235922 H 0.0 **** 0.06
293 H 296.88676811535527 110.7660238894666 104.94883016649922 H 0.0 **** 0.06
294 H 297.79710282097534 110.07072407959245 103.5851087209991 H 0.0 **** 0.06
295 H 298.6058538653614 110.34694680176324 105.1475859329793 H 0.0 **** 0.06
296 C 164.2283475556128 182.800175070141 33.53402988535089 C 0.0 **** -0.24
297 H 164.04560104152074 183.27971257943597 34.4954371022464 H 0.0 **** 0.06
298 H 165.12544806188043 183.22306301482178 33.08229786748956 H 0.0 **** 0.06
299 H 163.37570814108034 182.96962077598346 32.8759474174627 H 0.0 **** 0.06
300 H 164.36612814572806 181.72904639670003 33.68199685556732 H 0.0 **** 0.06
301 C 300.2333701599871 65.8687496248408 142.05376118040795 C 0.0 **** -0.24
302 H 300.2532299134699 66.28553219886544 143.06182032349025 H 0.0 **** 0.06
303 H 300.2896787605995 66.67858177037033 141.32590708066468 H 0.0 **** 0.06
304 H 299.3068925120519 65.31284427328984 141.90931479371767 H 0.0 **** 0.06
305 H 301.0832744003143 65.20077706077547 141.9205216305252 H 0.0 **** 0.06
306 C 21.630171286902225 142.39466524852986 68.23714387413531 C 0.0 **** -0.24
307 H 21.987031003178856 141.59362182134242 68.88346570922715 H 0.0 **** 0.06
308 H 21.474329898413487 142.00660197054205 67.22976524074699 H 0.0 **** 0.06
309 H 22.368644733376243 143.19512864066368 68.20772157884574 H 0.0 **** 0.06
310 H 20.6885673500895 142.78330908728094 68.62574179651574 H 0.0 **** 0.06
311 C 1.3932670071773998 79.26103986513678 152.96133659567823 C 0.0 **** -0.24
312 H 1.7395315560429054 79.94822996422818 152.18882835401678 H 0.0 **** 0.06
313 H 0.3081957895119558 79.16861811463212 152.90391684651644 H 0.0 **** 0.06
314 H 1.6743393629872543 79.64538244207614 153.94151589634475 H 0.0 **** 0.06
315 H 1.8503336734368787 78.28336516044564 152.8085374322124 H 0.0 **** 0.06
316 C 34.05949519399462 280.34789820238785 301.10314635223835 C 0.0 **** -0.24
317 H 32.972439263546505 280.28444065988305 301.06410931289537 H 0.0 **** 0.06
318 H 34.49037270483893 279.39444461021026 300.7985036671063 H 0.0 **** 0.06
319 H 34.37310801876225 280.5804511205289 302.1212016011342 H 0.0 **** 0.06
320 H 34.402085441594636 281.1339944053308 300.4301775324858 H 0.0 **** 0.06
321 C 84.58126681855339 185.01127870334057 21.53051914856593 C 0.0 **** -0.24
322 H 84.76535718414553 186.03481413593295 21.204363810551854 H 0.0 **** 0.06
323 H 84.663406501874 184.33808209450734 20.67588135492167 H 0.0 **** 0.06
324 H 83.58080174853987 184.9394289692351 21.955359827513178 H 0.0 **** 0.06
325 H 85.31739151745072 184.73256147716887 22.283946305931067 H 0.0 **** 0.06
326 C 115.82585673929674 42.701541630068334 88.79830704265518 C 0.0 **** -0.24
327 H 116.63133932870505 43.43434875258612 88.76059941263614 H 0.0 **** 0.06
328 H 116.22768058362348 41.73534183409308 89.10617050249186 H 0.0 **** 0.06
329 H 115.37237943826338 42.60936369055841 87.81182394032334 H 0.0 **** 0.06
330 H 115.07167240950369 43.02714595639091 89.51600278418309 H 0.0 **** 0.06
331 C 4.8991348402524295 27.106109693638047 303.0737778445624 C 0.0 **** -0.24
332 H 5.859045381073997 26.974208490083413 302.57458632251604 H 0.0 **** 0.06
333 H 4.249873241048931 27.724977410971633 302.45504003991107 H 0.0 **** 0.06
334 H 5.055427049935986 27.591438409178465 304.03754396568314 H 0.0 **** 0.06
335 H 4.433998846727945 26.131678917751344 303.22902773628766 H 0.0 **** 0.06
336 C 128.80358094224357 183.10489476178827 298.7730675293018 C 0.0 **** -0.24
337 H 129.84022040660878 183.25020648874118 299.0789293906246 H 0.0 **** 0.06
338 H 128.14513942682788 183.2869785476875 299.6233231511761 H 0.0 **** 0.06
339 H 128.66871960801532 182.0827793154906 298.42063770584525 H 0.0 **** 0.06
340 H 128.56182950028568 183.80080333494027 297.97041639523565 H 0.0 **** 0.06
341 C 282.0024192307517 92.75300111699462 109.19161849645783 C 0.0 **** -0.24
342 H 282.7576027698247 93.24322052278282 109.80670150730612 H 0.0 **** 0.06
343 H 281.78368042542957 93.37329459274176 108.32180949801176 H 0.0 **** 0.06
344 H 281.0936041845386 92.61272928317612 109.77604588303814 H 0.0 **** 0.06
345 H 282.37534948670253 91.78402848159942 108.86219566968848 H 0.0 **** 0.06
346 C 55.65414669669957 29.09065965917776 298.54633932231684 C 0.0 **** -0.24
347 H 55.739857604174745 30.16350876379275 298.3725009171264 H 0.0 **** 0.06
348 H 56.51872257486943 28.744921685357156 299.1131110179575 H 0.0 **** 0.06
349 H 55.614440459996075 28.5707830990776 297.5895911198248 H 0.0 **** 0.06
350 H 54.74299910767559 28.886841305047426 299.11006488130124 H 0.0 **** 0.06
351 C 13.332783467996208 216.9480021512419 76.5816275417452 C 0.0 **** -0.24
352 H 13.654426405640336 216.28931882580673 75.77506170665453 H 0.0 **** 0.06
353 H 13.875310215837018 217.8921571186724 76.517079237926 H 0.0 **** 0.06
354 H 13.53996813956637 216.47448419650686 77.54143096408973 H 0.0 **** 0.06
355 H 12.263626111369106 217.1357060857439 76.49191064297443 H 0.0 **** 0.06
356 C 74.19826176811569 218.72193766316303 297.07957675334933 C 0.0 **** -0.24
357 H 73.24190385227814 219.10948948215855 296.7300592726819 H 0.0 **** 0.06
358 H 74.0336753038456 218.07174222197884 297.9384920760813 H 0.0 **** 0.06
359 H 74.84295688003704 219.55203638134003 297.3701824748898 H 0.0 **** 0.06
360 H 74.67506860589714 218.1547123277436 296.2803708931545 H 0.0 **** 0.06
361 C 152.24611653975813 260.7520107363795 68.2541740639725 C 0.0 **** -0.24
362 H 152.01295409985943 261.73849800216806 67.85471881438451 H 0.0 **** 0.06
363 H 151.33774947454327 260.2951389687234 68.64550871328575 H 0.0 **** 0.06
364 H 152.97881171578712 260.84791693776174 69.05507738318613 H 0.0 **** 0.06
365 H 152.6557909529647 260.1265603270538 67.46025592203634 H 0.0 **** 0.06
366 C 32.53772087289312 71.9475143944124 50.79804407053663 C 0.0 **** -0.24
367 H 31.923819435903596 72.4596759750867 50.056546332885745 H 0.0 **** 0.06
368 H 33.56317165360787 71.88076988360473 50.43624134644614 H 0.0 **** 0.06
369 H 32.144278676606234 70.94424190069088 50.965304038801975 H 0.0 **** 0.06
370 H 32.517176927783765 72.50561206539305 51.73402659454959 H 0.0 **** 0.06
371 C 230.79380016634428 39.28222707720664 82.47999687519987 C 0.0 **** -0.24
372 H 230.64211482794255 39.6155081782324 81.45338613331296 H 0.0 **** 0.06
373 H 231.29566143223192 40.06662888035899 83.04678822332477 H 0.0 **** 0.06
374 H 231.40739453686874 38.38084960457843 82.48198539401625 H 0.0 **** 0.06
375 H 229.82794051959246 39.064270938453745 82.93687390341236 H 0.0 **** 0.06
376 C 279.98749245084235 41.20466108986281 72.87547065424874 C 0.0 **** -0.24
377 H 280.1754827445063 40.547256535256025 72.02696358401707 H 0.0 **** 0.06
378 H 280.9104995516684 41.34369755847237 73.43870338054626 H 0.0 **** 0.06
379 H 279.2321055640781 40.756364662269874 73.52053833473076 H 0.0 **** 0.06
380 H 279.6322194599345 42.16996530757601 72.51548840891147 H 0.0 **** 0.06
381 C 168.9823716174027 76.91711299020963 171.1424951545905 C 0.0 **** -0.24
382 H 169.54354605734773 76.02047751529986 171.4030991014153 H 0.0 **** 0.06
383 H 169.29559086033817 77.2681968768103 170.15874510249688 H 0.0 **** 0.06
384 H 169.17391521528458 77.69387324178112 171.88360305291673 H 0.0 **** 0.06
385 H 167.91711349809123 76.68714469387123 171.12454880897894 H 0.0 **** 0.06
386 C 246.98521838734237 132.31207680740013 213.67324039003307 C 0.0 **** -0.24
387 H 246.2361417408088 132.60344487143215 214.40908424303916 H 0.0 **** 0.06
388 H 247.88376858189702 131.97084593987094 214.1851274701122 H 0.0 **** 0.06
389 H 247.22717037762615 133.16919630435393 213.0437828790169 H 0.0 **** 0.06
390 H 246.59050336925634 131.50671481183363 213.0533577696467 H 0.0 **** 0.06
391 C 248.9938950362281 86.12564777632844 202.80067717991363 C 0.0 **** -0.24
392 H 249.24521269507267 85.55968483689705 201.902710174275 H 0.0 **** 0.06
393 H 249.22399101886208 87.17955781955422 202.64100309217383 H 0.0 **** 0.06
394 H 249.57523833812002 85.749340121563 203.64139048207693 H 0.0 **** 0.06
395 H 247.9304690774637 86.01417771752381 203.01341882655333 H 0.0 **** 0.06
396 C 46.2018639500709 59.044208288671626 312.54003814625855 C 0.0 **** -0.24
397 H 46.17052484584423 58.96619557515757 311.4530030825331 H 0.0 **** 0.06
398 H 47.13445175746563 58.616046946290766 312.90763193921896 H 0.0 **** 0.06
399 H 45.359351225631826 58.50152506776169 312.9676578099081 H 0.0 **** 0.06
400 H 46.14329115496446 60.092981128120215 312.83087677527607 H 0.0 **** 0.06
401 C 55.418604968567195 295.7541484363643 304.2308954813381 C 0.0 **** -0.24
402 H 54.60901813509162 296.4079346717171 304.5549634780596 H 0.0 **** 0.06
403 H 55.66991984517395 295.9745047158839 303.1934605232344 H 0.0 **** 0.06
404 H 55.102098870380615 294.7151714354564 304.3163649271466 H 0.0 **** 0.06
405 H 56.293607827204454 295.9204754875776 304.8607221779705 H 0.0 **** 0.06
406 C 159.0182118907802 244.54543871632688 134.7045964341252 C 0.0 **** -0.24
407 H 159.21906484533383 243.48523197736523 134.5527408834617 H 0.0 **** 0.06
408 H 158.34275096885432 244.90182272097223 133.92561097661712 H 0.0 **** 0.06
409 H 159.95348623370342 245.1020359850035 134.65638099745888 H 0.0 **** 0.06
410 H 158.5567766095366 244.6919883580995 135.68142755355896 H 0.0 **** 0.06
411 C 248.95078684984244 10.345175402097937 224.08936563393166 C 0.0 **** -0.24
412 H 248.93207814115516 9.255873860293775 224.11488979558828 H 0.0 **** 0.06
413 H 248.7457703252523 10.68794158436674 223.0753208037834 H 0.0 **** 0.06
414 H 249.93372591268047 10.698631614539465 224.40166333957814 H 0.0 **** 0.06
415 H 248.19208446485527 10.737049533595496 224.7667227816691 H 0.0 **** 0.06
416 C 222.08464563335414 187.56274587930312 270.99007479953247 C 0.0 **** -0.24
417 H 221.77546655769925 186.95489615196817 271.8395907511242 H 0.0 **** 0.06
418 H 221.35570845510458 188.35573598826193 270.82697476499834 H 0.0 **** 0.06
419 H 222.1466864107744 186.93713894585358 270.0996264535694 H 0.0 **** 0.06
420 H 223.06099628613305 188.00234839147925 271.1936856623177 H 0.0 **** 0.06
421 C 189.1885836882633 42.519804502103455 162.04411034098968 C 0.0 **** -0.24
422 H 188.43807461842982 42.20955543053989 162.7712630074805 H 0.0 **** 0.06
423 H 188.8781807902954 43.4559941993908 161.58019952933404 H 0.0 **** 0.06
424 H 189.2912148841515 41.751277718831744 161.27856428292029 H 0.0 **** 0.06
425 H 190.1450688804851 42.66287514428112 162.54765599125494 H 0.0 **** 0.06
426 C 44.6820318584075 33.2520172961479 32.39411531183666 C 0.0 **** -0.24
427 H 45.355421957124065 34.10911953907876 32.39939452316665 H 0.0 **** 0.06
428 H 44.25967192148349 33.12833288868026 31.396314927829053 H 0.0 **** 0.06
429 H 43.87810949795505 33.41815426424489 33.11055002061664 H 0.0 **** 0.06
430 H 45.23516598569594 32.35477678599847 32.6685938103829 H 0.0 **** 0.06
431 C 306.3810698672259 157.59799812756256 106.37187352186294 C 0.0 **** -0.24
432 H 305.6395465069009 157.38682668298696 107.14172875022646 H 0.0 **** 0.06
433 H 306.8100731058381 156.66108034133515 106.01503092634826 H 0.0 **** 0.06
434 H 307.1705709250488 158.22327244064144 106.78943485322662 H 0.0 **** 0.06
435 H 305.90456993278485 158.11843030517832 105.54160157418693 H 0.0 **** 0.06
436 C 32.65858361771501 197.92434191828374 284.6207236241487 C 0.0 **** -0.24
437 H 32.57028752562158 198.95662130347523 284.9587686197184 H 0.0 **** 0.06
438 H 32.01949141989914 197.7703462267097 283.7506070544842 H 0.0 **** 0.06
439 H 32.34919250937068 197.25282294904616 285.4222245725601 H 0.0 **** 0.06
440 H 33.69479281731762 197.71745792316733 284.35320753653355 H 0.0 **** 0.06
441 C 196.6000299039502 279.22682396264605 310.5911802776873 C 0.0 **** -0.24
442 H 196.59067417731512 278.30465242976675 311.171255685882 H 0.0 **** 0.06
443 H 196.14178510234143 279.04776210040745 309.6175176512642 H 0.0 **** 0.06
444 H 197.6289998558879 279.55889330556056 310.45337556382424 H 0.0 **** 0.06
445 H 196.03833644226523 279.9963636593567 311.1209127206723 H 0.0 **** 0.06
446 C 101.51912386121884 163.12998052683736 266.72412215367075 C 0.0 **** -0.24
447 H 102.52250880022478 162.83994190820414 266.41319513415795 H 0.0 **** 0.06
448 H 100.87135031713103 163.19292604561429 265.84932180470776 H 0.0 **** 0.06
449 H 101.55842382225549 164.1008521309716 267.2186868047698 H 0.0 **** 0.06
450 H 101.1240277129233 162.3853690668629 267.41580644664265 H 0.0 **** 0.06
451 C 163.3104276719202 205.25589034031384 23.32145547969995 C 0.0 **** -0.24
452 H 162.4378698606186 205.90820021118276 23.27638828742289 H 0.0 **** 0.06
453 H 163.61877049769055 204.9910301324211 22.309742019717362 H 0.0 **** 0.06
454 H 163.05988519362876 204.35155819828543 23.874691583822454 H 0.0 **** 0.06
455 H 164.12508890958043 205.77637193339672 23.8251928418847 H 0.0 **** 0.06
456 C 267.1791841019758 212.5784637027321 253.7348186736222 C 0.0 **** -0.24
457 H 266.39412291014736 213.20659558492525 253.31361134411927 H 0.0 **** 0.06
458 H 267.939068162865 213.2086934905426 254.1978370129384 H 0.0 **** 0.06
459 H 267.6337924252328 211.98441562676737 252.9424794139099 H 0.0 **** 0.06
460 H 266.7491789274355 211.9154110192976 254.48563092679896 H 0.0 **** 0.06
461 C 201.8196888140206 68.96896307676656 241.5319362691002 C 0.0 **** -0.24
462 H 202.79466399216523 69.36588267124955 241.81193909113594 H 0.0 **** 0.06
463 H 201.18511397612525 68.90756562593936 242.41620516449444 H 0.0 **** 0.06
464 H 201.94206732676327 67.97425098891046 241.10292961004654 H 0.0 **** 0.06
465 H 201.35689968151382 69.6271884924515 240.79693499771687 H 0.0 **** 0.06
466 C 239.90305543903935 80.89114278969069 162.10824273722528 C 0.0 **** -0.24
467 H 240.82601601384786 80.86374417721899 162.68799738025677 H 0.0 **** 0.06
468 H 239.12022081834408 81.37349685219473 162.69358611085977 H 0.0 **** 0.06
469 H 239.59885436418315 79.87339384681655 161.86319754423243 H 0.0 **** 0.06
470 H 240.06851501074482 81.45192988269247 161.1884300848073 H 0.0 **** 0.06
471 C 192.5782528942379 237.6357945803743 29.536947006055982 C 0.0 **** -0.24
472 H 192.58683057439578 238.41613824698806 30.298039993860584 H 0.0 **** 0.06
473 H 193.5982351041767 237.29875147867284 29.35150000535117 H 0.0 **** 0.06
474 H 192.15247478698768 238.03158013083387 28.615788418185303 H 0.0 **** 0.06
475 H 191.97586290369065 236.79652598573136 29.884870670311642 H 0.0 **** 0.06
476 C 270.1201652284567 171.61030123212618 144.54175516284047 C 0.0 **** -0.24
477 H 270.761604256255 172.49068726366374 144.50626209879678 H 0.0 **** 0.06
478 H 270.6291770539873 170.7704586857315 144.06766781481053 H 0.0 **** 0.06
479 H 269.1896439608048 171.81717448357387 144.0119740912916 H 0.0 **** 0.06
480 H 269.90008569306605 171.36270015152598 145.58014528820138 H 0.0 **** 0.06
481 C 53.98904049909473 165.12141778846149 199.99902442431443 C 0.0 **** -0.24
482 H 53.75363061181224 164.65550296145477 199.04181968564228 H 0.0 **** 0.06
483 H 54.90807519447222 164.689129208625 200.39587221170518 H 0.0 **** 0.06
484 H 53.172193100704334 164.9464701316166 200.69889083517694 H 0.0 **** 0.06
485 H 54.123700925025645 166.1931405167154 199.85688960073833 H 0.0 **** 0.06
486 C 310.1803875439289 236.526889274594 57.78643374762137 C 0.0 **** -0.24
487 H 310.19114479068986 236.19005025115598 56.749855673510126 H 0.0 **** 0.06
488 H 309.8204156103899 237.55417228263826 57.830435709427235 H 0.0 **** 0.06
489 H 311.1890615171468 236.4762044780158 58.19466923179942 H 0.0 **** 0.06
490 H 309.52060242512164 235.88407619414656 58.369522327869504 H 0.0 **** 0.06
491 C 247.55605153288866 93.89189127860956 46.428465909262655 C 0.0 **** -0.24
492 H 246.9670951764259 93.02337072045918 46.722392427099436 H 0.0 **** 0.06
493 H 248.3900593174219 94.01597155526062 47.120807920216464 H 0.0 **** 0.06
494 H 246.92748305651645 94.78268477078282 46.45318391478776 H 0.0 **** 0.06
495 H 247.9405941623503 93.74585376286643 45.419681316593085 H 0.0 **** 0.06
496 C 50.056061735070955 236.45835590687352 284.52403816159904 C 0.0 **** -0.24
497 H 49.420792747828074 237.20256114772508 285.00459848494677 H 0.0 **** 0.06
498 H 51.07416476134651 236.84090825310489 284.45471083402117 H 0.0 **** 0.06
499 H 49.677372396383106 236.24878674216262 283.5239974140426 H 0.0 **** 0.06
500 H 50.05130818569009 235.54114616640345 285.11363891584034 H 0.0 **** 0.06
501 C 212.20897538814694 283.9167363834666 284.97055793611366 C 0.0 **** -0.24
502 H 212.60295740469707 284.2842168005852 284.023342194683 H 0.0 **** 0.06
503 H 212.13376042687798 284.7428396357858 285.6774203516521 H 0.0 **** 0.06
504 H 212.87784172446925 283.15450919980793 285.3711398851348 H 0.0 **** 0.06
505 H 211.22114123743398 283.48455919308134 284.80979438847385 H 0.0 **** 0.06
506 C 26.982154587165155 171.95085054274915 219.4467759528481 C 0.0 **** -0.24
507 H 27.436347771627936 171.89367709018404 218.45755398709355 H 0.0 **** 0.06
508 H 27.167347477253543 171.0214018893023 219.98555990362536 H 0.0 **** 0.06
509 H 25.908028412994128 172.10391122311086 219.34483117554274 H 0.0 **** 0.06
510 H 27.41758078634615 172.78411350529876 219.99849527570973 H 0.0 **** 0.06
511 C 276.37059462504277 288.04741344544186 148.76779212444475 C 0.0 **** -0.24
512 H 275.82581428716793 287.4670444636275 149.51288848157958 H 0.0 **** 0.06
513 H 277.4345565675135 288.03898658816985 149.0063761286674 H 0.0 **** 0.06
514 H 276.00555415790996 289.0739192478545 148.7701669571155 H 0.0 **** 0.06
515 H 276.2156504017199 287.6087082650473 147.7823407558008 H 0.0 **** 0.06
516 C 56.645466814511366 124.14254540827463 28.045391376008126 C 0.0 **** -0.24
517 H 56.907017922256784 123.08473045463998 28.06747962618161 H 0.0 **** 0.06
518 H 56.885205296522514 124.55446185876792 27.0642243892959 H 0.0 **** 0.06
519 H 57.211982294747884 124.67304879325562 28.810770183827657 H 0.0 **** 0.06
520 H 55.57860156258775 124.25757505463739 28.236265846731214 H 0.0 **** 0.06
521 C 13.436123287637542 79.88383624914147 72.85692453056032 C 0.0 **** -0.24
522 H 13.84681870010887 78.90522823337741 72.6079165372939 H 0.0 **** 0.06
523 H 13.668486282463917 80.12169095999923 73.89460074290369 H 0.0 **** 0.06
524 H 12.353974582046462 79.86836000146548 72.7210311086582 H 0.0 **** 0.06
525 H 13.873492794275407 80.63777064346604 72.20327157327645 H 0.0 **** 0.06
526 C 164.81116774039947 158.65231286409187 305.1179114517687 C 0.0 **** -0.24
527 H 164.9269716243948 159.532643680585 305.7497796831981 H 0.0 **** 0.06
528 H 164.78670569222515 158.95745962800527 304.0717248474098 H 0.0 **** 0.06
529 H 163.88031895809218 158.14424856316987 305.36980539840687 H 0.0 **** 0.06
530 H 165.64953186157612 157.9750263382394 305.27951253558297 H 0.0 **** 0.06
531 C 191.79645925749168 196.64313370947684 239.35551225732718 C 0.0 **** -0.24
532 H 191.71992142465086 196.17515945788108 238.3744065510527 H 0.0 **** 0.06
533 H 192.80815307730205 196.51412010651904 239.74099566571255 H 0.0 **** 0.06
534 H 191.0847084571941 196.17774698838264 240.0369991213065 H 0.0 **** 0.06
535 H 191.57385521006557 197.70693950119193 239.26812788236998 H 0.0 **** 0.06
536 C 307.86308450908865 233.72690460284386 144.09585969007807 C 0.0 **** -0.24
537 H 307.63348639230435 232.77753381661478 143.61187294884468 H 0.0 **** 0.06
538 H 308.2586074527015 234.42472411894204 143.35676505409137 H 0.0 **** 0.06
539 H 308.60662724861294 233.565599609539 144.87687905412534 H 0.0 **** 0.06
540 H 306.95590219830626 234.13830915008788 144.5366293536067 H 0.0 **** 0.06
541 C 93.64532663374177 219.7876727990728 1.6862564104019526 C 0.0 **** -0.24
542 H 93.81624112165716 219.96740706325568 0.6251578385969907 H 0.0 **** 0.06
543 H 93.0955204633135 220.62667717192417 2.113558634113133 H 0.0 **** 0.06
544 H 94.6040946960467 219.68431605217128 2.194857961452186 H 0.0 **** 0.06
545 H 93.06776070423598 218.8719262352557 1.810723980110538 H 0.0 **** 0.06
546 C 300.4613787551133 138.6934796233955 2.1955100592493295 C 0.0 **** -0.24
547 H 300.1838992037308 139.7441179926327 2.115971003690177 H 0.0 **** 0.06
548 H 300.5973705386782 138.43265349177568 3.2453578179833045 H 0.0 **** 0.06
549 H 301.39191958651753 138.52206070082968 1.65410848427409 H 0.0 **** 0.06
550 H 299.6720348139527 138.07603671884908 1.766492864653813 H 0.0 **** 0.06
551 C 270.8990481756079 57.34314906999157 232.13102155875248 C 0.0 **** -0.24
552 H 270.8314282263503 58.360698101815956 232.51493542530517 H 0.0 **** 0.06
553 H 269.95204092908375 57.06655108670947 231.66720566618213 H 0.0 **** 0.06
554 H 271.11508427250203 56.65895092980452 232.95172836443703 H 0.0 **** 0.06
555 H 271.69664813539526 57.286363301731626 231.39034549588064 H 0.0 **** 0.06
556 C 120.97300259670286 58.61860262867165 114.61691435187171 C 0.0 **** -0.24
557 H 120.29771178181315 58.90649803386998 113.81176970854003 H 0.0 **** 0.06
558 H 121.56011523481081 59.48264919445549 114.92577941277395 H 0.0 **** 0.06
559 H 121.64045801132136 57.83080661519085 114.26580031565882 H 0.0 **** 0.06
560 H 120.39197084881604 58.252034385788704 115.46407501442229 H 0.0 **** 0.06
561 C 1.0263929252408275 42.387503373618955 240.28832862728973 C 0.0 **** -0.24
562 H 0.07760639791592894 42.9216442328632 240.3403768595791 H 0.0 **** 0.06
563 H 0.8432768816832095 41.34570029679125 240.0245688592616 H 0.0 **** 0.06
564 H 1.5234389817595115 42.43504430841995 241.2566278691706 H 0.0 **** 0.06
565 H 1.6613018111131623 42.84820675737518 239.5309294901991 H 0.0 **** 0.06
566 C 294.0075597862386 28.7178616825409 212.68634843982318 C 0.0 **** -0.24
567 H 294.46143556676475 29.652276986789133 213.01403603163686 H 0.0 **** 0.06
568 H 293.9700049450536 28.018920974717588 213.523000027374 H 0.0 **** 0.06
569 H 294.6026792862765 28.28847151744361 211.88084535884022 H 0.0 **** 0.06
570 H 292.99557545021224 28.910673358795833 212.32820919650115 H 0.0 **** 0.06
571 C 90.80216262667568 270.0773280199338 33.03305220480502 C 0.0 **** -0.24
572 H 91.19558012686898 270.91390772386524 33.609902632807916 H 0.0 **** 0.06
573 H 90.69512641501493 270.3746262063773 31.989760113122202 H 0.0 **** 0.06
574 H 89.83017617728092 269.78580555912544 33.430688151212166 H 0.0 **** 0.06
575 H 91.48962456269533 269.2337968720766 33.101445496289784 H 0.0 **** 0.06
576 C 89.73026111289221 174.22125026601435 1.2164877735673087 C 0.0 **** -0.24
577 H 90.00360356921635 173.73570670041528 0.2804371921781126 H 0.0 **** 0.06
578 H 90.03394978711157 173.59326179788627 2.0548725475329803 H 0.0 **** 0.06
579 H 88.65036175255747 174.37042092555367 1.246618180229575 H 0.0 **** 0.06
580 H 90.23197444844973 175.18622600223188 1.2845605639554236 H 0.0 **** 0.06
581 C 82.22575549462837 155.59627409299674 309.82059154278556 C 0.0 **** -0.24
582 H 83.20961076443902 155.53107411484888 309.35505086284996 H 0.0 **** 0.06
583 H 82.20573348758441 156.44090747300197 310.50898454151894 H 0.0 **** 0.06
584 H 82.02127853129784 154.67583216878654 310.36698168101174 H 0.0 **** 0.06
585 H 81.46845502545204 155.7366753299185 309.0501638459691 H 0.0 **** 0.06
586 C 70.31679088598204 260.21649286884195 99.31148939816907 C 0.0 **** -0.24
587 H 70.13594161098675 259.8721067942369 100.33011500402873 H 0.0 **** 0.06
588 H 69.64621380175586 261.0434474628888 99.0825902640077 H 0.0 **** 0.06
589 H 70.1371207761666 259.3974074215561 98.61458407100258 H 0.0 **** 0.06
590 H 71.35053889882118 260.54974825785155 99.22049356853029 H 0.0 **** 0.06
591 C 247.10588125418928 9.320127103642633 286.40407858725996 C 0.0 **** -0.24
592 H 246.1528224392081 9.322008655840875 285.8740581064857 H 0.0 **** 0.06
593 H 246.92415221863138 9.340108966921207 287.4780877247414 H 0.0 **** 0.06
594 H 247.68369882724295 10.197839108765237 286.1156295703488 H 0.0 **** 0.06
595 H 247.6624818251091 8.418270528482424 286.14662591545914 H 0.0 **** 0.06
596 C 311.91842186348447 211.97211573542467 180.27551727929892 C 0.0 **** -0.24
597 H 311.5729102864692 212.08318931242695 179.24756846642146 H 0.0 **** 0.06
598 H 312.97308434643514 212.24257003619886 180.33481206926126 H 0.0 **** 0.06
599 H 311.79021386484783 210.93657831163108 180.59147978533986 H 0.0 **** 0.06
600 H 311.33768186002294 212.62499271083948 180.9262914708542 H 0.0 **** 0.06
601 C 53.316406041698286 130.27249909658138 285.6287828928107 C 0.0 **** -0.24
602 H 53.7747500398975 129.36523865419625 285.23409868629307 H 0.0 **** 0.06
603 H 53.0846573376121 130.13243844533702 286.68452476525215 H 0.0 **** 0.06
604 H 52.39848423405911 130.48307998523595 285.0801166976693 H 0.0 **** 0.06
605 H 54.00763280689972 131.10724363491946 285.5153877350946 H 0.0 **** 0.06
606 C 167.90960782739108 243.22939695803237 105.4874531074903 C 0.0 **** -0.24
607 H 167.7895361284646 242.74726330079494 104.51687736230014 H 0.0 **** 0.06
608 H 167.06637044870303 242.97234872988014 106.12739628855388 H 0.0 **** 0.06
609 H 167.94793956233394 244.31019138598668 105.35237745713212 H 0.0 **** 0.06
610 H 168.83583339817625 242.88788185007755 105.9500900872714 H 0.0 **** 0.06
611 C 273.47813765672186 21.98541728997651 91.90290486374124 C 0.0 **** -0.24
612 H 273.90530250627353 20.98332859030259 91.89042394219331 H 0.0 **** 0.06
613 H 273.3389137713405 22.334427056878866 90.87994287020706 H 0.0 **** 0.06
614 H 274.15415552929574 22.661767396342242 92.42827114561885 H 0.0 **** 0.06
615 H 272.5170365370738 21.964219932683477 92.41511053792647 H 0.0 **** 0.06
616 C 249.31479669718843 5.447868595665028 38.29760091847629 C 0.0 **** -0.24
617 H 250.03599877438762 5.42269765857651 39.113725499628345 H 0.0 **** 0.06
618 H 248.5619911159223 4.674865736950977 38.45454259770406 H 0.0 **** 0.06
619 H 249.82917210307892 5.267511895534199 37.35288468636486 H 0.0 **** 0.06
620 H 248.83357349278668 6.425425392337999 38.267965017523466 H 0.0 **** 0.06
621 C 242.75220420221024 231.8730620859974 287.94179094167094 C 0.0 **** -0.24
622 H 243.69238896152228 232.36475798025367 287.69564848749803 H 0.0 **** 0.06
623 H 242.9264511477005 230.8056773979355 288.08190262935994 H 0.0 **** 0.06
624 H 242.04162459100954 232.02157047654305 287.12859771448564 H 0.0 **** 0.06
625 H 242.34747373755374 232.299125858021 288.8600241717554 H 0.0 **** 0.06
626 C 278.0853631816718 153.5574576138406 121.62023690373178 C 0.0 **** -0.24
627 H 277.89355841823715 154.50060796345002 121.10924404889613 H 0.0 **** 0.06
628 H 278.8957499500737 153.02993960848397 121.11609863468698 H 0.0 **** 0.06
629 H 277.18444981132546 152.94340074935428 121.59963057215151 H 0.0 **** 0.06
630 H 278.3669962236964 153.75500105597757 122.6537981071624 H 0.0 **** 0.06
631 C 123.4023605590038 251.24007866949003 264.93401434535315 C 0.0 **** -0.24
632 H 122.86177928877223 250.51686908984584 264.3231034305769 H 0.0 **** 0.06
633 H 122.68906965492022 251.90462601807403 265.42411767003784 H 0.0 **** 0.06
634 H 124.06759834096798 251.8260036656938 264.29998757854617 H 0.0 **** 0.06
635 H 123.98727339772609 250.71392927782983 265.6874664885833 H 0.0 **** 0.06
636 C 17.51443343048919 113.20127407774854 144.7282514661011 C 0.0 **** -0.24
637 H 18.4873494710516 112.77279918398628 144.4895613134114 H 0.0 **** 0.06
638 H 16.966523935949695 113.39385468940074 143.80575797312764 H 0.0 **** 0.06
639 H 17.652373960182516 114.13561080886322 145.2718704784074 H 0.0 **** 0.06
640 H 16.951399765494628 112.50066774295595 145.3463729864378 H 0.0 **** 0.06
641 C 159.2759327228299 123.31628294921589 161.1438370333875 C 0.0 **** -0.24
642 H 159.6402193549295 124.29621101129649 160.83403774912375 H 0.0 **** 0.06
643 H 158.19155215612295 123.28297748007034 161.04095904819695 H 0.0 **** 0.06
644 H 159.54928678050555 123.13978710988513 162.183945261397 H 0.0 **** 0.06
645 H 159.7254204611569 122.54679486814365 160.51538558687355 H 0.0 **** 0.06
646 C 225.1256979331341 12.359289949095825 163.56710664228274 C 0.0 **** -0.24
647 H 225.48885614849422 13.382227463237356 163.4668554389557 H 0.0 **** 0.06
648 H 224.09707507845013 12.301818461513207 163.2113224377522 H 0.0 **** 0.06
649 H 225.16574876754913 12.060412388667174 164.6145604524463 H 0.0 **** 0.06
650 H 225.75271238607644 11.691506099240257 162.97559336303794 H 0.0 **** 0.06
651 C 56.023694713593926 73.8121148320815 0.2797451578824024 C 0.0 **** -0.24
652 H 55.08598260610947 73.91133066523656 -0.2670624609995116 H 0.0 **** 0.06
653 H 56.180971504335815 72.7657691564244 0.5419971153385177 H 0.0 **** 0.06
654 H 55.9809767306937 74.41252684497908 1.187522074797002 H 0.0 **** 0.06
655 H 56.84639670316787 74.15752024239711 -0.34695085484587196 H 0.0 **** 0.06
656 C 212.1364154879581 113.42927885854547 223.30728471458372 C 0.0 **** -0.24
657 H 212.1741248135557 114.4235844021091 222.86172232283076 H 0.0 **** 0.06
658 H 213.1477580788348 113.10102706059038 223.55032643497051 H 0.0 **** 0.06
659 H 211.68781165577604 112.73139428388467 222.6003999491751 H 0.0 **** 0.06
660 H 211.53596740366578 113.46110968759774 224.21669015135848 H 0.0 **** 0.06
661 C 109.47043843466221 211.04191103391625 88.87416132829998 C 0.0 **** -0.24
662 H 110.21268673651932 211.82337782651678 89.038756173753 H 0.0 **** 0.06
663 H 109.13693354638627 210.64941332953413 89.83611475903004 H 0.0 **** 0.06
664 H 109.91403721574281 210.2375735115653 88.28745303546077 H 0.0 **** 0.06
665 H 108.61883228209626 211.45776380331674 88.33660688392945 H 0.0 **** 0.06
666 C 246.7323026232176 212.5734217005056 54.14053919056431 C 0.0 **** -0.24
667 H 246.15035225948336 213.4853976389883 54.004384810060884 H 0.0 **** 0.06
668 H 247.24383537931183 212.3267320649834 53.209772938240945 H 0.0 **** 0.06
669 H 246.06625639779787 211.75616024026425 54.417113738943755 H 0.0 **** 0.06
670 H 247.46807998417032 212.72634470549133 54.93009132930783 H 0.0 **** 0.06
671 C 0.9190114465154693 21.883220829480507 68.76605481893668 C 0.0 **** -0.24
672 H 1.3735009795757378 22.798209602315268 69.1457786122443 H 0.0 **** 0.06
673 H 0.725352614892131 21.989225888187292 67.69900208782101 H 0.0 **** 0.06
674 H -0.019777447031515294 21.699369527175293 69.28916615024843 H 0.0 **** 0.06
675 H 1.5965586552033528 21.045488889162158 68.93096790491214 H 0.0 **** 0.06
676 C 41.005546828060176 53.7112958527529 73.84448132820023 C 0.0 **** -0.24
677 H 40.72304056093495 54.76328946673013 73.80153955114366 H 0.0 **** 0.06
678 H 40.18236320594056 53.13015047858315 74.25920789468753 H 0.0 **** 0.06
679 H 41.88662320885851 53.59689917757436 74.47665390432172 H 0.0 **** 0.06
680 H 41.23189659459618 53.355432235156286 72.83924343594049 H 0.0 **** 0.06
681 C 134.47310053115612 285.3026529011788 209.74402993483113 C 0.0 **** -0.24
682 H 133.60701477743822 284.9884664884105 209.16127980262274 H 0.0 **** 0.06
683 H 134.27874170320936 285.131997269219 210.80345461668463 H 0.0 **** 0.06
684 H 134.65910240572384 286.363407954855 209.57505251083643 H 0.0 **** 0.06
685 H 135.3464051696635 284.72679199616704 209.4371707197198 H 0.0 **** 0.06
686 C 189.5190082720622 218.63554185172993 75.53022264476735 C 0.0 **** -0.24
687 H 188.602195987612 219.0111509767766 75.07533433735404 H 0.0 **** 0.06
688 H 189.64370028738568 217.58170455746793 75.27884600718465 H 0.0 **** 0.06
689 H 189.46010961635903 218.74576280620488 76.61281981702712 H 0.0 **** 0.06
690 H 190.37018039721897 219.20201118063193 75.15227441647556 H 0.0 **** 0.06
691 C 37.10250793512898 273.60065730445604 108.75317982025936 C 0.0 **** -0.24
692 H 36.725462600307424 273.7223470038212 107.73757370371516 H 0.0 **** 0.06
693 H 36.4111982039949 272.9829638387624 109.32581319746657 H 0.0 **** 0.06
694 H 37.194886378900605 274.5788343269673 109.22636719430645 H 0.0 **** 0.06
695 H 38.08045623759375 273.11911622129145 108.72212087715724 H 0.0 **** 0.06
696 C 28.335888274022693 228.47071634353154 200.4123127658924 C 0.0 **** -0.24
697 H 28.243673253601514 229.50054834649958 200.75671047734465 H 0.0 **** 0.06
698 H 27.869810384567046 227.80328852590122 201.13770773601897 H 0.0 **** 0.06
699 H 29.390018496423465 228.21623063011583 200.30759485671507 H 0.0 **** 0.06
700 H 27.837914283808118 228.36460951140128 199.44870517266884 H 0.0 **** 0.06
701 C 297.10827280034516 126.68054571079438 312.67418665192974 C 0.0 **** -0.24
702 H 296.7098858205312 127.01767680267278 313.63033297144034 H 0.0 **** 0.06
703 H 297.04122361983303 127.48946784744362 311.9462163659462 H 0.0 **** 0.06
704 H 296.5308650469382 125.82618434695576 312.32107152074656 H 0.0 **** 0.06
705 H 298.1511526758576 126.38815998160999 312.79789397532966 H 0.0 **** 0.06
706 C 294.0664903960752 158.59188581754103 269.87083963045654 C 0.0 **** -0.24
707 H 294.2640824674827 157.84452411531305 270.64006990464406 H 0.0 **** 0.06
708 H 293.05524457641394 158.4581689791873 269.486844775524 H 0.0 **** 0.06
709 H 294.7834662155659 158.4725690168778 269.05780178953216 H 0.0 **** 0.06
710 H 294.1643560909191 159.58893488527127 270.29926793058115 H 0.0 **** 0.06
711 C 10.272279718977245 101.62181297388153 105.9766592115437 C 0.0 **** -0.24
712 H 9.524587787923679 100.83754529233079 105.85682878324442 H 0.0 **** 0.06
713 H 10.460073517118303 102.09426866135647 105.01201395714634 H 0.0 **** 0.06
714 H 11.19773943690177 101.18576755201943 106.35395359844276 H 0.0 **** 0.06
715 H 9.907827453055404 102.36755640047838 106.68176674138266 H 0.0 **** 0.06
716 C 188.85160948911772 78.9671724558082 81.29489551184724 C 0.0 **** -0.24
717 H 188.560800470022 77.91770050226825 81.33633319008001 H 0.0 **** 0.06
718 H 189.12687875312912 79.22791480611184 80.27205309124517 H 0.0 **** 0.06
719 H 189.70328796128007 79.13459588780026 81.95352782222827 H 0.0 **** 0.06
720 H 188.0156675906041 79.58890955720432 81.61572485874521 H 0.0 **** 0.06
721 C 159.1029483715801 143.68711194108806 228.8571893484762 C 0.0 **** -0.24
722 H 159.71899565222202 144.22577341187403 229.57761833212692 H 0.0 **** 0.06
723 H 159.72851930055498 143.3333329431207 228.03698645379495 H 0.0 **** 0.06
724 H 158.33345880076547 144.35461348176932 228.46677309302578 H 0.0 **** 0.06
725 H 158.6299538360771 142.83661512974317 229.34820940256674 H 0.0 **** 0.06
726 C 38.17336049846034 299.40496308346565 30.86137002114822 C 0.0 **** -0.24
727 H 38.75754118410924 300.1322649901678 31.425644081677092 H 0.0 **** 0.06
728 H 37.1330224348535 299.72958182564923 30.819349292610127 H 0.0 **** 0.06
729 H 38.2315077067737 298.4331348658942 31.351875035492696 H 0.0 **** 0.06
730 H 38.570563355787954 299.32608025858474 29.849552479047873 H 0.0 **** 0.06
731 C 9.542631419824602 275.7881026288336 160.61978648056606 C 0.0 **** -0.24
732 H 9.263977875756893 275.00806043671156 159.9108762370422 H 0.0 **** 0.06
733 H 9.025030494813166 275.6214114797101 161.56451008755857 H 0.0 **** 0.06
734 H 9.260940701086383 276.7613653290317 160.21735461391347 H 0.0 **** 0.06
735 H 10.619496002291683 275.76055976250206 160.784730135284 H 0.0 **** 0.06
736 C 173.88727180168013 13.694094008775153 109.90372688599487 C 0.0 **** -0.24
737 H 173.24726782049402 14.517948373579657 109.58758729590329 H 0.0 **** 0.06
738 H 174.35666246099692 13.944733841259065 110.85626373249491 H 0.0 **** 0.06
739 H 174.6576194359438 13.523333509186571 109.15198442853705 H 0.0 **** 0.06
740 H 173.28674198212354 12.792460028949904 110.0210616582865 H 0.0 **** 0.06
741 C 136.65354627577744 49.776997790885446 121.57473619141282 C 0.0 **** -0.24
742 H 137.0320397028803 48.77818833152139 121.35560439764177 H 0.0 **** 0.06
743 H 136.21257263918906 50.203628748603705 120.67378578875113 H 0.0 **** 0.06
744 H 137.47433998309327 50.41002538908856 121.91376436955852 H 0.0 **** 0.06
745 H 135.8969159449955 49.714921229061815 122.35660279829324 H 0.0 **** 0.06
746 C 61.158536083526315 132.98381166050976 279.1087114220686 C 0.0 **** -0.24
747 H 60.37320101690628 133.2353941440508 279.8222928415234 H 0.0 **** 0.06
748 H 61.6192897141008 133.89981834230574 278.7385125537007 H 0.0 **** 0.06
749 H 60.72813655783122 132.42958885892455 278.2750618067233 H 0.0 **** 0.06
750 H 61.913547403413816 132.3715031862498 279.60160145873056 H 0.0 **** 0.06
751 C 273.3843728654859 245.04674997299992 4.591531107760844 C 0.0 **** -0.24
752 H 274.06862156603717 244.34769710710736 5.073074625381722 H 0.0 **** 0.06
753 H 273.94743199649866 245.71688751357232 3.9410609341759653 H 0.0 **** 0.06
754 H 272.8648133860785 245.62943202819108 5.35245023714333 H 0.0 **** 0.06
755 H 272.6558250147095 244.49157691853907 3.998919710587856 H 0.0 **** 0.06
756 C 240.96905489918186 56.193342778611964 289.2808019845951 C 0.0 **** -0.24
757 H 241.96615398996195 56.358925161685534 288.8741052638354 H 0.0 **** 0.06
758 H 240.22262845553132 56.5020730704575 288.54816256023776 H 0.0 **** 0.06
759 H 240.84708800467484 56.77834259093268 290.19244042528493 H 0.0 **** 0.06
760 H 240.84082390781697 55.135264318434736 289.50699909015225 H 0.0 **** 0.06
761 C 181.90742645109935 57.737548369066474 71.287589375322 C 0.0 **** -0.24
762 H 181.18324957278566 57.06187019020396 71.74350186773668 H 0.0 **** 0.06
763 H 181.68846877909766 58.76127319173483 71.59137281114809 H 0.0 **** 0.06
764 H 181.84440770788058 57.65842452755123 70.20274357925916 H 0.0 **** 0.06
765 H 182.91125513025327 57.46736447984185 71.61474071192012 H 0.0 **** 0.06
766 C 39.38743420862386 109.37239850438593 208.5188174508438 C 0.0 **** -0.24
767 H 39.64125860990748 109.82091900045103 209.47900174845674 H 0.0 **** 0.06
768 H 38.9176214952123 110.12136272972919 207.8798613008051 H 0.0 **** 0.06
769 H 38.69726829389981 108.54400140669969 208.675193931764 H 0.0 **** 0.06
770 H 40.294719295366576 109.00349711734452 208.03929279778686 H 0.0 **** 0.06
771 C 274.4689285947635 13.712666965765592 88.86950861518679 C 0.0 **** -0.24
772 H 274.36139875261773 13.17663168510957 89.81324473684847 H 0.0 **** 0.06
773 H 273.4873195326189 13.845447369955224 88.4140040972269 H 0.0 **** 0.06
774 H 275.10765435930347 13.139855933747285 88.19792298045002 H 0.0 **** 0.06
775 H 274.919547677205 14.687858719679255 89.05491044111099 H 0.0 **** 0.06
776 C 309.69357754747915 299.3712726838945 179.6335550500599 C 0.0 **** -0.24
777 H 309.50594571271165 299.59759378832723 180.68238029518983 H 0.0 **** 0.06
778 H 310.76784335324334 299.3090063859745 179.46152530257302 H 0.0 **** 0.06
779 H 309.2706782535793 300.16060168173357 179.0112960406601 H 0.0 **** 0.06
780 H 309.2282874589589 298.41940659643785 179.37788840353232 H 0.0 **** 0.06
781 C 154.25567927927762 65.80936912596968 257.00294182582115 C 0.0 **** -0.24
782 H 153.22527559241462 65.78191143622337 256.6492899279744 H 0.0 **** 0.06
783 H 154.26778594609783 66.0163129950881 258.07322544023896 H 0.0 **** 0.06
784 H 154.79962901019013 66.5929299629777 256.4750730384757 H 0.0 **** 0.06
785 H 154.7301021395254 64.84642599413564 256.81318718014904 H 0.0 **** 0.06
786 C 144.26256119389745 27.80545053458934 155.26152752401083 C 0.0 **** -0.24
787 H 144.31364379369015 28.331502614662384 156.21462622055105 H 0.0 **** 0.06
788 H 143.72083140210466 26.868132407664177 155.3927598247913 H 0.0 **** 0.06
789 H 145.2714005290677 27.59637622616873 154.90763139087386 H 0.0 **** 0.06
790 H 143.74246199764644 28.426839169222376 154.53160674293702 H 0.0 **** 0.06
791 C 63.19526601087401 243.14558822856895 192.26804630735478 C 0.0 **** -0.24
792 H 63.653703715030815 242.1585418022373 192.2130865888305 H 0.0 **** 0.06
793 H 62.98330812672373 243.5045638152223 191.26134042696083 H 0.0 **** 0.06
794 H 63.876940236092736 243.8362504593737 192.76461481655338 H 0.0 **** 0.06
795 H 62.266160870438455 243.0825485531815 192.8351168411799 H 0.0 **** 0.06
796 C 171.60035954364815 313.0802126101635 21.04164526305948 C 0.0 **** -0.24
797 H 172.66689559153394 312.8546165212314 21.06441842275649 H 0.0 **** 0.06
798 H 171.0390622521204 312.2103145347901 21.383864553104843 H 0.0 **** 0.06
799 H 171.30396333333601 313.32587069606456 20.021846880207278 H 0.0 **** 0.06
800 H 171.39309824852575 313.9277350559889 21.694677274148063 H 0.0 **** 0.06
801 C 264.352388840753 55.004731471761374 93.25168609361751 C 0.0 **** -0.24
802 H 263.33539981287504 54.63255691814163 93.37697683728175 H 0.0 **** 0.06
803 H 264.8328859467564 55.08609338576571 94.22640560077838 H 0.0 **** 0.06
804 H 264.32418838841147 55.98557106613089 92.77644112811629 H 0.0 **** 0.06
805 H 264.91682394525634 54.31464681441378 92.62448554450424 H 0.0 **** 0.06
806 C 72.91229642157185 37.95701704722043 123.26723809265181 C 0.0 **** -0.24
807 H 73.0547833861433 36.93177466908111 122.92637612832559 H 0.0 **** 0.06
808 H 72.47094689002404 38.548569644757436 122.46504954507279 H 0.0 **** 0.06
809 H 73.87567755705092 38.384610761709865 123.54551449177916 H 0.0 **** 0.06
810 H 72.24867100047692 37.963316900393835 124.13161125275829 H 0.0 **** 0.06
811 C 56.24544573074701 98.067940347253 28.649388609138697 C 0.0 **** -0.24
812 H 56.67899033611468 97.86827919517089 29.629167078001046 H 0.0 **** 0.06
813 H 56.66216262634819 98.99225728381538 28.249344137346952 H 0.0 **** 0.06
814 H 55.163873519011474 98.16827963591035 28.74341483217455 H 0.0 **** 0.06
815 H 56.47633006556586 97.24251157356477 27.974834593160125 H 0.0 **** 0.06
816 C 109.91860417141854 47.582119361614815 144.0630984039765 C 0.0 **** -0.24
817 H 109.66753035811766 46.568581248954075 143.75215020994028 H 0.0 **** 0.06
818 H 109.03556726696638 48.21724449239295 143.9801029087114 H 0.0 **** 0.06
819 H 110.70924335326632 47.97306230305753 143.42237564624872 H 0.0 **** 0.06
820 H 110.2614426542084 47.570842145661885 145.09759197471004 H 0.0 **** 0.06
821 C 50.495085622331345 228.80755826063168 277.1059323414082 C 0.0 **** -0.24
822 H 51.21759743147831 228.21115845261633 277.6630914791448 H 0.0 **** 0.06
823 H 49.50024731303685 228.3809502609444 277.22947463279604 H 0.0 **** 0.06
824 H 50.76254178529072 228.8071782556957 276.04919897534353 H 0.0 **** 0.06
825 H 50.50129564979548 229.83054546178408 277.48175273779077 H 0.0 **** 0.06
826 C 229.51357417195499 21.514941094954963 149.48213389767272 C 0.0 **** -0.24
827 H 229.96155950432728 21.789675086812622 148.52697122699672 H 0.0 **** 0.06
828 H 228.69083222080687 20.821094214972675 149.3097780489336 H 0.0 **** 0.06
829 H 229.1367696994839 22.410172619013338 149.97699979743635 H 0.0 **** 0.06
830 H 230.26512302520462 21.039412759351308 150.11152286212126 H 0.0 **** 0.06
831 C 295.24082206381206 154.40039245841558 175.2007586240178 C 0.0 **** -0.24
832 H 295.23091872777104 153.32175805136308 175.04014699492308 H 0.0 **** 0.06
833 H 294.22098258837224 154.7558108597857 175.34510733485718 H 0.0 **** 0.06
834 H 295.6775871626031 154.89217374985424 174.33103409061533 H 0.0 **** 0.06
835 H 295.8348125946821 154.62968958807767 176.0849008190492 H 0.0 **** 0.06
836 C 30.809070203540017 168.0892345997094 70.76009247713947 C 0.0 **** -0.24
837 H 31.72601334484898 168.53064617938003 70.3689129207365 H 0.0 **** 0.06
838 H 30.98957923773412 167.04459221300715 71.0144821871319 H 0.0 **** 0.06
839 H 30.026715895376668 168.1488958795947 70.00387847608079 H 0.0 **** 0.06
840 H 30.496140389950995 168.63134312188504 71.65131726518317 H 0.0 **** 0.06
841 C 78.75938551702464 271.1267473439057 226.2724581916946 C 0.0 **** -0.24
842 H 77.80962373176081 270.8342513107756 225.82617020640197 H 0.0 **** 0.06
843 H 79.53939285378542 271.11093993227337 225.51009670383212 H 0.0 **** 0.06
844 H 79.0166599166177 270.4298935643141 227.07028464156602 H 0.0 **** 0.06
845 H 78.67369088011912 272.1326798967511 226.68354027456593 H 0.0 **** 0.06
846 C 73.16912808872027 176.64371504001838 105.22975605230204 C 0.0 **** -0.24
847 H 72.98073222956569 177.24859433952082 106.11707526541096 H 0.0 **** 0.06
848 H 74.05119963628326 176.02393568551634 105.39348354120054 H 0.0 **** 0.06
849 H 73.33698073863829 177.29700959037785 104.37414921297417 H 0.0 **** 0.06
850 H 72.30674900909406 176.00553832784345 105.03660285460504 H 0.0 **** 0.06
851 C 254.0696032626371 112.55969361697652 189.71241434382756 C 0.0 **** -0.24
852 H 253.69411100972448 112.95105746107151 188.76718037419897 H 0.0 **** 0.06
853 H 253.88596615379547 113.2847494970294 190.5044507867455 H 0.0 **** 0.06
854 H 255.14097457380498 112.37500894697587 189.62835817033124 H 0.0 **** 0.06
855 H 253.55853176621113 111.62657531293556 189.94749624856587 H 0.0 **** 0.06
856 C 263.6460157438682 282.33428889949687 29.988508554202042 C 0.0 **** -0.24
857 H 263.8196209771285 281.3143782959077 29.647851944166092 H 0.0 **** 0.06
858 H 263.02147532969764 282.85764672997766 29.26374086216802 H 0.0 **** 0.06
859 H 264.60081667846305 282.85209356067617 30.08611932956086 H 0.0 **** 0.06
860 H 263.14285785832715 282.3141135687067 30.95479238645845 H 0.0 **** 0.06
861 C 243.13807748888559 304.1421087291639 283.0170206433055 C 0.0 **** -0.24
862 H 244.02684915319333 303.8991891770759 283.5995276136456 H 0.0 **** 0.06
863 H 243.2619298128534 303.7800401130458 281.9967156565013 H 0.0 **** 0.06
864 H 242.99714161101434 305.22315127509194 283.00504380436087 H 0.0 **** 0.06
865 H 242.26690478409412 303.66729751991494 283.46965713010763 H 0.0 **** 0.06
866 C 301.1936173305013 252.34996214318284 197.83537327563266 C 0.0 **** -0.24
867 H 302.1145309057048 252.8003236377799 197.46682334010148 H 0.0 **** 0.06
868 H 300.4056634848899 252.47294700598934 197.09118928069552 H 0.0 **** 0.06
869 H 300.89610589834035 252.83816180608915 198.7627477314419 H 0.0 **** 0.06
870 H 301.35702245826536 251.2881071073349 198.01996471082646 H 0.0 **** 0.06
871 C 212.0920817398778 158.38211256883778 76.14466450244151 C 0.0 **** -0.24
872 H 211.5423047596933 157.50279048613123 75.8083710310442 H 0.0 **** 0.06
873 H 213.04674741843075 158.07203502158148 76.57143342570546 H 0.0 **** 0.06
874 H 211.50951223881376 158.90664738619984 76.90117646271437 H 0.0 **** 0.06
875 H 212.27044842627842 159.04511722371342 75.2979405192171 H 0.0 **** 0.06
876 C 115.32286393303741 238.59818034184195 143.4133423519778 C 0.0 **** -0.24
877 H 115.00751249326109 237.5630474633304 143.54463874785375 H 0.0 **** 0.06
878 H 116.17452123271806 238.8029058770692 144.06303047298937 H 0.0 **** 0.06
879 H 114.49977762262688 239.26377208740408 143.6724405989852 H 0.0 **** 0.06
880 H 115.60997457395123 238.76202307598587 142.37465405007995 H 0.0 **** 0.06
881 C 13.239989077258386 146.50676846656518 8.405223818431537 C 0.0 **** -0.24
882 H 12.340074157715392 146.83852194682527 7.888206302421111 H 0.0 **** 0.06
883 H 13.078566653541444 146.55684778892658 9.482661621065887 H 0.0 **** 0.06
884 H 14.074231827806372 147.15334573773572 8.132947826554826 H 0.0 **** 0.06
885 H 13.46638241406292 145.4797819613569 8.11829677906087 H 0.0 **** 0.06
886 C 154.29575302147953 116.54387085305666 35.60508252112635 C 0.0 **** -0.24
887 H 153.4592943475459 117.18505450936155 35.88372702057029 H 0.0 **** 0.06
888 H 154.9382464836326 116.38908861945086 36.47293848234233 H 0.0 **** 0.06
889 H 154.86918593346866 117.01942091155766 34.80878911317677 H 0.0 **** 0.06
890 H 153.9171295565626 115.58337949650812 35.25665179321504 H 0.0 **** 0.06
891 C 160.85610928794245 128.26955455893795 31.581069142677592 C 0.0 **** -0.24
892 H 160.9034967781147 127.75992485012617 32.54312284854285 H 0.0 **** 0.06
893 H 161.84858627885188 128.28616587971902 31.130283341832865 H 0.0 **** 0.06
894 H 160.50583232265518 129.2916985275855 31.72781759739692 H 0.0 **** 0.06
895 H 160.1671553735198 127.74057720155929 30.923812114009365 H 0.0 **** 0.06
896 C 25.733837503226738 155.61597875213653 91.01455005788088 C 0.0 **** -0.24
897 H 24.946280159163706 156.36207824870428 90.90377855507708 H 0.0 **** 0.06
898 H 26.52421083523413 156.01494790292145 91.6515021513251 H 0.0 **** 0.06
899 H 26.14425317086335 155.37329135404877 90.034216360707 H 0.0 **** 0.06
900 H 25.319880457377963 154.71548637501576 91.46775132750747 H 0.0 **** 0.06
901 C 230.21805155985913 228.4602132803902 12.519896401866134 C 0.0 **** -0.24
902 H 230.0110106701639 229.4718047974493 12.170308038403178 H 0.0 **** 0.06
903 H 231.29563284086433 228.32247670795613 12.613941994067773 H 0.0 **** 0.06
904 H 229.81979691461197 227.7401325193422 11.80612033174279 H 0.0 **** 0.06
905 H 229.74624120515648 228.30828488245427 13.49038447416757 H 0.0 **** 0.06
906 C 78.97482386325234 266.1088109679423 230.39299554249794 C 0.0 **** -0.24
907 H 78.06072939138085 265.95915262346887 229.81906956903998 H 0.0 **** 0.06
908 H 79.19002854508724 267.17569754764486 230.46072534106105 H 0.0 **** 0.06
909 H 79.80210340354935 265.6015659845507 229.89699006147407 H 0.0 **** 0.06
910 H 78.8464341129918 265.6988277161048 231.39519719841672 H 0.0 **** 0.06
911 C 294.6748512425728 313.18095616947414 154.05119463283825 C 0.0 **** -0.24
912 H 295.55694193797143 313.3559687597976 153.43551131585974 H 0.0 **** 0.06
913 H 294.9658786995161 313.1459286031471 155.10082048844282 H 0.0 **** 0.06
914 H 294.2168165634869 312.23325932764885 153.76830370330106 H 0.0 **** 0.06
915 H 293.959567250251 313.9894602792577 153.89861590912642 H 0.0 **** 0.06
916 C 61.26041465303581 24.221130396334445 161.40827905113127 C 0.0 **** -0.24
917 H 60.64029609284191 23.833772490524893 162.21701768414135 H 0.0 **** 0.06
918 H 61.950679916504384 23.444498279117738 161.0760640921083 H 0.0 **** 0.06
919 H 61.82574107699287 25.081690343512264 161.76400500647895 H 0.0 **** 0.06
920 H 60.62413255521659 24.522258490124727 160.5758138476557 H 0.0 **** 0.06
921 C 40.633915507460415 111.14640996422577 107.46439890391261 C 0.0 **** -0.24
922 H 40.368081527788746 112.20128127639475 107.39421228795803 H 0.0 **** 0.06
923 H 39.72772614692025 110.5505493988502 107.5788863921887 H 0.0 **** 0.06
924 H 41.282447469208165 110.9924458226071 108.32677972881805 H 0.0 **** 0.06
925 H 41.15682670609536 110.84263395104168 106.55793855791111 H 0.0 **** 0.06
926 C 222.77583028916808 85.71657404747728 171.1166306032485 C 0.0 **** -0.24
927 H 222.22146012362663 84.84103159685273 170.7807162086251 H 0.0 **** 0.06
928 H 223.21109048924865 85.51733749912691 172.0966498442031 H 0.0 **** 0.06
929 H 222.10066481809378 86.56983726423155 171.18597627581903 H 0.0 **** 0.06
930 H 223.57004883939055 85.93869349449008 170.40480254121053 H 0.0 **** 0.06
931 C 34.539950241095084 307.26234007847415 112.45224803953417 C 0.0 **** -0.24
932 H 35.608759071424345 307.24410757192965 112.66540668923327 H 0.0 **** 0.06
933 H 34.0417778795744 307.9347343381134 113.15137364491753 H 0.0 **** 0.06
934 H 34.13091084037086 306.25780178835623 112.56061751178953 H 0.0 **** 0.06
935 H 34.37825446283682 307.6132224179663 111.43291128948152 H 0.0 **** 0.06
936 C 265.0095683117088 89.74400985598996 154.83720646409682 C 0.0 **** -0.24
937 H 264.20441425406455 90.15427375498047 155.4464041535412 H 0.0 **** 0.06
938 H 264.5922384602562 89.07063667547814 154.08893064453696 H 0.0 **** 0.06
939 H 265.70295723188786 89.19503179244697 155.47417211474658 H 0.0 **** 0.06
940 H 265.538931766431 90.55698535301016 154.338945960027 H 0.0 **** 0.06
941 C 94.38749464543886 233.30858014767017 6.989689745089663 C 0.0 **** -0.24
942 H 94.08081033165328 232.66152709681285 7.811410762434718 H 0.0 **** 0.06
943 H 94.09813995727777 234.33671757847958 7.20878251280385 H 0.0 **** 0.06
944 H 93.90129982424622 232.9825116714793 6.07019189572776 H 0.0 **** 0.06
945 H 95.46851622137282 233.25298026182685 6.867938573080494 H 0.0 **** 0.06
946 C 68.29375432567676 159.53462441807488 1.1164188930115841 C 0.0 **** -0.24
947 H 68.13185347647337 160.2095623696925 0.2756054599498583 H 0.0 **** 0.06
948 H 67.59919882543426 158.69695383874335 1.047288501428028 H 0.0 **** 0.06
949 H 68.12598992098074 160.07105472892005 2.0505751851178076 H 0.0 **** 0.06
950 H 69.317876101765 159.16165473423365 1.089297772785983 H 0.0 **** 0.06
951 C 230.20015629311627 194.39799109318005 12.110286852697513 C 0.0 **** -0.24
952 H 230.64998628308422 194.12218466924867 11.156340235710118 H 0.0 **** 0.06
953 H 230.2936989386915 195.47398360867675 12.257406634607463 H 0.0 **** 0.06
954 H 230.71326445993208 193.87513567702723 12.917732563099932 H 0.0 **** 0.06
955 H 229.14653075521952 194.1215781930556 12.109595908676312 H 0.0 **** 0.06
956 C 209.1106320667173 193.26151236192442 255.07911800289097 C 0.0 **** -0.24
957 H 210.1260702036056 193.6577695242895 255.07915688968362 H 0.0 **** 0.06
958 H 209.14098776980705 192.18743704000826 254.8971260190533 H 0.0 **** 0.06
959 H 208.532183938002 193.74772955515886 254.29394989948253 H 0.0 **** 0.06
960 H 208.64607931076108 193.45418069287598 256.0459938996162 H 0.0 **** 0.06
961 C 177.2740503934897 42.47552167808777 129.8867709470721 C 0.0 **** -0.24
962 H 177.84524390523336 43.342879322397465 130.21864447973581 H 0.0 **** 0.06
963 H 177.14397771841658 41.78512241271292 130.72089882041075 H 0.0 **** 0.06
964 H 177.81110252889744 41.97475386637035 129.08029902614547 H 0.0 **** 0.06
965 H 176.29783628109095 42.799525399205464 129.52688771235339 H 0.0 **** 0.06
966 C 84.8448088992532 233.35513009705176 74.22135887312976 C 0.0 **** -0.24
967 H 84.89453373973186 232.35455003969867 73.79160622335394 H 0.0 **** 0.06
968 H 84.24068424247923 233.32910639445151 75.12923360233424 H 0.0 **** 0.06
969 H 84.39177959311377 234.0363061737939 73.50229354783636 H 0.0 **** 0.06
970 H 85.85060489842155 233.69743745253555 74.46307446723787 H 0.0 **** 0.06
971 C 159.01231075461214 232.75343664173676 139.04954227285398 C 0.0 **** -0.24
972 H 159.2141553077904 233.78153065606236 139.35123388171348 H 0.0 **** 0.06
973 H 158.71050256526428 232.17223154088646 139.92157197591885 H 0.0 **** 0.06
974 H 159.91401706498414 232.31886830749184 138.61735198444518 H 0.0 **** 0.06
975 H 158.21272667163413 232.74301364285773 138.30994508665646 H 0.0 **** 0.06
976 C 289.14168523962 174.12694589011278 124.97599244883943 C 0.0 **** -0.24
977 H 288.3305217812016 173.79844700259616 124.32616810729044 H 0.0 **** 0.06
978 H 289.09255771152687 173.58379292520897 125.91968344280716 H 0.0 **** 0.06
979 H 289.0436689054702 175.19598116978057 125.1659917146068 H 0.0 **** 0.06
980 H 290.09769098462505 173.92937213010418 124.49131010554615 H 0.0 **** 0.06
981 C 258.3426734543094 155.0146363515653 43.222363559920495 C 0.0 **** -0.24
982 H 259.05307581018445 155.45561755607042 43.922300288658676 H 0.0 **** 0.06
983 H 257.87871229520357 154.14021450980073 43.680154824012845 H 0.0 **** 0.06
984 H 258.86544549523717 154.71512542519417 42.31492213442937 H 0.0 **** 0.06
985 H 257.57388471078286 155.74634907461052 42.974584005689735 H 0.0 **** 0.06
986 C 302.3293429550556 192.53054604616676 296.4539554026648 C 0.0 **** -0.24
987 H 301.7464517159629 191.65146257483508 296.1818591018172 H 0.0 **** 0.06
988 H 302.18588002165274 192.74832647985187 297.5123964356503 H 0.0 **** 0.06
989 H 302.00140907622944 193.3833160604687 295.859814828199 H 0.0 **** 0.06
990 H 303.3859284703926 192.33937888010837 296.26254610329573 H 0.0 **** 0.06
991 C 162.50865172744471 282.6639093486268 303.4633631345411 C 0.0 **** -0.24
992 H 163.4389627535271 282.9038133371586 302.94985576871 H 0.0 **** 0.06
993 H 161.76580048601613 282.3360562716076 302.73636056109723 H 0.0 **** 0.06
994 H 162.142378875176 283.5495064295453 303.9836835768783 H 0.0 **** 0.06
995 H 162.68664585053097 281.8666389437649 304.18559879374055 H 0.0 **** 0.06
996 C 203.54075481883262 238.22957625009155 141.41108666157356 C 0.0 **** -0.24
997 H 204.23279241125175 238.69300077353927 142.11388964212458 H 0.0 **** 0.06
998 H 203.79683385938336 238.53376881452948 140.3957104932709 H 0.0 **** 0.06
999 H 202.52356724004522 238.54773821420576 141.640260712276 H 0.0 **** 0.06
1000 H 203.60983644202793 237.145173871351 141.49416227777843 H 0.0 **** 0.06
1001 C 193.2764719122536 131.56200445669825 280.78084035865743 C 0.0 **** -0.24
1002 H 192.365263765784 131.87390399549747 281.291237989312 H 0.0 **** 0.06
1003 H 193.19620273618688 131.79601900057264 279.7188453460566 H 0.0 **** 0.06
1004 H 193.41285437049987 130.48779072768318 280.9062598154936 H 0.0 **** 0.06
1005 H 194.1297547353994 132.08916425057643 281.2058277921583 H 0.0 **** 0.06
1006 C 118.16478440202076 107.18671174033645 270.2386790895993 C 0.0 **** -0.24
1007 H 118.28543540389674 106.14060583976598 270.52031738774656 H 0.0 **** 0.06
1008 H 117.36657615660647 107.63259787995548 270.83207482369306 H 0.0 **** 0.06
1009 H 117.91067964344299 107.2503259728656 269.18041903037187 H 0.0 **** 0.06
1010 H 119.09612170324021 107.72144030800465 270.42251471126 H 0.0 **** 0.06
1011 C 289.9208190455126 159.17518205958208 118.50274385882093 C 0.0 **** -0.24
1012 H 289.3298172791552 160.08995726831478 118.46735210553706 H 0.0 **** 0.06
1013 H 290.97001222079956 159.41409994522274 118.33193908690336 H 0.0 **** 0.06
1014 H 289.5736691222027 158.48807697661425 117.7308495090555 H 0.0 **** 0.06
1015 H 289.8094037972961 158.70805379267216 119.48158867676585 H 0.0 **** 0.06
1016 C 58.655620315840935 232.00368741979784 112.59881931252198 C 0.0 **** -0.24
1017 H 57.96691359108053 232.62169137792188 113.17412836078131 H 0.0 **** 0.06
1018 H 59.45372001633697 232.6270994119633 112.19425199879308 H 0.0 **** 0.06
1019 H 58.11741026064175 231.52630958034254 111.7803978553633 H 0.0 **** 0.06
1020 H 59.08463112682517 231.23870094227678 113.24624789131067 H 0.0 **** 0.06
1021 C 296.2678167225814 300.42483839668677 173.64198840531054 C 0.0 **** -0.24
1022 H 296.86776507574774 300.9062698912117 174.4150970945954 H 0.0 **** 0.06
1023 H 296.8836081274796 299.7091335714331 173.09776611939452 H 0.0 **** 0.06
1024 H 295.89113237070967 301.1797906353825 172.95254924041825 H 0.0 **** 0.06
1025 H 295.42872153365147 299.90521982342943 174.10583876621416 H 0.0 **** 0.06
1026 C 293.33223421641526 187.9101880033071 91.58871872813023 C 0.0 **** -0.24
1027 H 293.49337227645634 188.82066719505252 92.16690773016182 H 0.0 **** 0.06
1028 H 293.0181721354565 187.10755653221474 92.25629425396212 H 0.0 **** 0.06
1029 H 294.26004366938537 187.62812615978748 91.09158586583382 H 0.0 **** 0.06
1030 H 292.5590751864119 188.08668042463194 90.84176900835084 H 0.0 **** 0.06
1031 C 44.666341696403805 27.972543121415185 114.80968595009384 C 0.0 **** -0.24
1032 H 44.434412181136764 26.909590467985083 114.87682540755009 H 0.0 **** 0.06
1033 H 44.91549651567075 28.225322157228874 113.77936367891121 H 0.0 **** 0.06
1034 H 45.515634807734415 28.199019598995392 115.4551206647833 H 0.0 **** 0.06
1035 H 43.80193546170503 28.553587566146035 115.12901580879543 H 0.0 **** 0.06
1036 C 185.9186313146884 100.46476653823484 117.61786168175766 C 0.0 **** -0.24
1037 H 186.4053179839571 101.43814239013358 117.54309608139971 H 0.0 **** 0.06
1038 H 186.48687136648994 99.82629752445587 118.29495540934258 H 0.0 **** 0.06
1039 H 185.87623113867693 100.00316300853169 116.6319865625714 H 0.0 **** 0.06
1040 H 184.9075367273976 100.59413150677452 118.00276139119211 H 0.0 **** 0.06
1041 C 285.34782926284686 105.27170091990564 290.31049352011314 C 0.0 **** -0.24
1042 H 284.91326457818786 105.45551095756971 291.29271231020925 H 0.0 **** 0.06
1043 H 285.31757297798185 106.18913261218225 289.72183317513986 H 0.0 **** 0.06
1044 H 284.77930043485117 104.49385490151874 289.8016105380472 H 0.0 **** 0.06
1045 H 286.38251432785324 104.94864649207082 290.4261352244699 H 0.0 **** 0.06
1046 C 290.9296157047163 164.94678256931235 225.58450746738737 C 0.0 **** -0.24
1047 H 290.2184826906603 164.1991516406274 225.23360836602325 H 0.0 **** 0.06
1048 H 291.5529138227768 165.27375864766435 224.75152580167259 H 0.0 **** 0.06
1049 H 291.55881045925025 164.51344330269524 226.36162675583557 H 0.0 **** 0.06
1050 H 290.3874958881349 165.80111628905718 225.9907147454963 H 0.0 **** 0.06
1051 C 145.41638699735813 206.977130310483 280.6816576853795 C 0.0 **** -0.24
1052 H 144.98334007678196 206.3731103762466 281.47890208514787 H 0.0 **** 0.06
1053 H 146.49101648890294 206.79947912616313 280.63397262404465 H 0.0 **** 0.06
1054 H 145.23004678196867 208.0313970030972 280.8827556921699 H 0.0 **** 0.06
1055 H 144.9602230282844 206.7028325743069 279.73049706021214 H 0.0 **** 0.06
1056 C 224.52255461626444 38.35285144209806 96.83578404516811 C 0.0 **** -0.24
1057 H 224.45578015611892 38.78386621923269 97.83540936973881 H 0.0 **** 0.06
1058 H 225.52349873438664 38.51626861729571 96.43635689368628 H 0.0 **** 0.06
1059 H 223.78895009142698 38.82861792594295 96.18574327772689 H 0.0 **** 0.06
1060 H 224.3221800121583 37.28241491502362 96.8878418221149 H 0.0 **** 0.06
1061 C 275.8580724439399 20.190303119734423 13.406841762883431 C 0.0 **** -0.24
1062 H 276.28968459634586 19.991046099172024 14.3880221450341 H 0.0 **** 0.06
1063 H 275.1156194482562 20.98447281557395 13.49142543641058 H 0.0 **** 0.06
1064 H 275.3817742798125 19.285722514843783 13.030134538057169 H 0.0 **** 0.06
1065 H 276.6453537673576 20.50087446079762 12.720057292241663 H 0.0 **** 0.06
1066 C 302.69861208731083 71.89448253868352 208.28189712804107 C 0.0 **** -0.24
1067 H 302.1533583046548 72.73555260640725 207.85489502172686 H 0.0 **** 0.06
1068 H 303.4937739708541 71.5934095855898 207.59917755895822 H 0.0 **** 0.06
1069 H 302.0161474690467 71.0592438238161 208.43598048060318 H 0.0 **** 0.06
1070 H 303.13258043260043 72.18967329849872 209.23747090474868 H 0.0 **** 0.06
1071 C 12.934806004649857 48.91997225874579 68.50638550561467 C 0.0 **** -0.24
1072 H 13.698880338150715 49.18298080555513 69.23868003123027 H 0.0 **** 0.06
1073 H 12.68511885112369 49.79906589393593 67.91216916748238 H 0.0 **** 0.06
1074 H 12.043459870181252 48.56474616751888 69.02435253790765 H 0.0 **** 0.06
1075 H 13.313139009004388 48.13391758229221 67.85324499150855 H 0.0 **** 0.06
1076 C 84.60223106936655 211.45442139091202 199.05586291815246 C 0.0 **** -0.24
1077 H 85.59422913970985 211.83279720134715 199.30020267991154 H 0.0 **** 0.06
1078 H 84.69174342362942 210.63496045281428 198.34362654342488 H 0.0 **** 0.06
1079 H 84.00584184583352 212.25509720962742 198.6177345350352 H 0.0 **** 0.06
1080 H 84.11673082124935 211.0961044414074 199.96438470053886 H 0.0 **** 0.06
1081 C 278.9864672914155 37.925951593319155 285.84555321486323 C 0.0 **** -0.24
1082 H 278.1557430521193 37.67483955391947 285.18674039792165 H 0.0 **** 0.06
1083 H 279.2562448452353 38.97331783725366 285.7063038803457 H 0.0 **** 0.06
1084 H 279.8425982938895 37.29504003513932 285.60854127810666 H 0.0 **** 0.06
1085 H 278.6901160450054 37.76189670577264 286.8820344191054 H 0.0 **** 0.06
1086 C 271.85802048535726 289.96346141608836 189.47968180149155 C 0.0 **** -0.24
1087 H 272.2754764044788 289.9219260017183 188.47397920535911 H 0.0 **** 0.06
1088 H 272.6676515390651 289.9453945857439 190.20928066157762 H 0.0 **** 0.06
1089 H 271.20655160702506 289.1036346574562 189.637851325984 H 0.0 **** 0.06
1090 H 271.2824054378692 290.88186173853666 189.59664554134008 H 0.0 **** 0.06
1091 C 157.47574967060473 40.659429100240175 171.15829955422004 C 0.0 **** -0.24
1092 H 158.16340790279912 39.81397403246376 171.174677382519 H 0.0 **** 0.06
1093 H 157.30352145836508 41.00782012804012 172.17689146794044 H 0.0 **** 0.06
1094 H 156.52942980248656 40.34848794894231 170.71471792533538 H 0.0 **** 0.06
1095 H 157.9061221113643 41.465964366672665 170.56502156342918 H 0.0 **** 0.06
1096 C 68.76484520108468 56.71806423394736 163.70584751515923 C 0.0 **** -0.24
1097 H 68.87339205383762 55.89333250562336 164.41061450467504 H 0.0 **** 0.06
1098 H 68.54451674741168 56.321517126897476 162.71407177425982 H 0.0 **** 0.06
1099 H 69.69253488112267 57.28984955346593 163.67190994661678 H 0.0 **** 0.06
1100 H 67.9501234885648 57.36636585908158 164.02720849677036 H 0.0 **** 0.06
1101 C 284.1351543086516 211.24598608922668 62.06550832288917 C 0.0 **** -0.24
1102 H 283.48340312203345 211.15085877719434 61.19733464630107 H 0.0 **** 0.06
1103 H 285.1240971912898 211.57155591882216 61.74328074854097 H 0.0 **** 0.06
1104 H 284.21448235149796 210.28128452523833 62.5661202499642 H 0.0 **** 0.06
1105 H 283.7166833048223 211.9799668738871 62.75424163635745 H 0.0 **** 0.06
1106 C 192.69984470549144 313.0927356857851 51.60299343462168 C 0.0 **** -0.24
1107 H 193.29721661862044 312.44743845991104 50.9588089593168 H 0.0 **** 0.06
1108 H 192.7105063620608 314.1093436806466 51.21015012866644 H 0.0 **** 0.06
1109 H 193.11762638041296 313.0876510977075 52.61007435096019 H 0.0 **** 0.06
1110 H 191.67329866046344 312.7255799230593 51.634205930579355 H 0.0 **** 0.06
1111 C 19.963981521609966 99.0715114663891 6.9943528861731465 C 0.0 **** -0.24
1112 H 20.568354507092593 98.23477907755785 7.3459301292608075 H 0.0 **** 0.06
1113 H 19.05986549028421 98.69084370163904 6.517164649251129 H 0.0 **** 0.06
1114 H 20.536824604381536 99.6551416417957 6.274180012652721 H 0.0 **** 0.06
1115 H 19.690349053888156 99.70343801094123 7.838988584357196 H 0.0 **** 0.06
1116 C 27.826175213897642 200.90193365328508 118.4010476719128 C 0.0 **** -0.24
1117 H 28.16132927447069 201.92872206237348 118.54535174541746 H 0.0 **** 0.06
1118 H 28.37509307525187 200.24243778525755 119.0743126553453 H 0.0 **** 0.06
1119 H 28.008199479750658 200.60159614927147 117.36889462955688 H 0.0 **** 0.06
1120 H 26.759217473939714 200.83439392742764 118.61658867135768 H 0.0 **** 0.06
1121 C 74.0623585678413 112.69610529712583 173.46513656445035 C 0.0 **** -0.24
1122 H 73.2590967367457 112.31107069661456 172.83669234377476 H 0.0 **** 0.06
1123 H 74.77074038247429 111.89547779714334 173.67908553751647 H 0.0 **** 0.06
1124 H 73.64513343035779 113.07149610049274 174.39920095007852 H 0.0 **** 0.06
1125 H 74.57491690133801 113.50440684688218 172.94418368129266 H 0.0 **** 0.06
1126 C 205.42850170555124 117.05778552210279 237.1243919665788 C 0.0 **** -0.24
1127 H 204.6787479111979 116.28982006156298 237.314961244622 H 0.0 **** 0.06
1128 H 204.96696895536343 117.89125805616513 236.59275542210202 H 0.0 **** 0.06
1129 H 206.23178799837626 116.63963316797478 236.51763411437025 H 0.0 **** 0.06
1130 H 205.83423904148674 117.41130371798619 238.0718746555138 H 0.0 **** 0.06
1131 C 235.70521603833032 301.43046618628716 210.49766560584138 C 0.0 **** -0.24
1132 H 235.44313602876974 302.4865528514531 210.44700628000285 H 0.0 **** 0.06
1133 H 236.73398661171967 301.29465444991683 210.16224104646733 H 0.0 **** 0.06
1134 H 235.03464742787742 300.85840114438065 209.8550820048649 H 0.0 **** 0.06
1135 H 235.6083175595585 301.08095700388435 211.52549115795563 H 0.0 **** 0.06
1136 C 0.4207163764322246 221.81678421749976 229.0765464878373 C 0.0 **** -0.24
1137 H -0.014660489942841082 222.20822106767463 228.15716869488608 H 0.0 **** 0.06
1138 H 0.2842935669299038 222.54069331900322 229.8797318825115 H 0.0 **** 0.06
1139 H 1.4856813942316762 221.63627852632203 228.92606870876813 H 0.0 **** 0.06
1140 H -0.07103983283363391 220.88134865573087 229.34192826323974 H 0.0 **** 0.06
1141 C 11.801001309181245 307.32134316776774 13.58554531905665 C 0.0 **** -0.24
1142 H 11.413288161102813 306.5720567119048 12.8953571767004 H 0.0 **** 0.06
1143 H 12.59345650690966 307.8887132157394 13.097133259704108 H 0.0 **** 0.06
1144 H 12.200172089647438 306.82713191243795 14.471565790250182 H 0.0 **** 0.06
1145 H 10.99668841801747 307.9963529715552 13.877356706906824 H 0.0 **** 0.06
1146 C 188.12416716072892 0.4635225788931905 163.5314897596033 C 0.0 **** -0.24
1147 H 188.72033358284358 1.1954393746178056 162.98524827683485 H 0.0 **** 0.06
1148 H 187.06536894657347 0.6828781513217166 163.3942278782352 H 0.0 **** 0.06
1149 H 188.37218745713716 0.5117083905634843 164.59117339354486 H 0.0 **** 0.06
1150 H 188.34139501482144 -0.5351043446806898 163.15297202536118 H 0.0 **** 0.06
1151 C 68.3747608814621 278.38476730091054 18.016384053661042 C 0.0 **** -0.24
1152 H 68.89781029704142 278.2224953752992 17.073718957834956 H 0.0 **** 0.06
1153 H 67.33109837260693 278.0885083471975 17.907675483989493 H 0.0 **** 0.06
1154 H 68.42841243473663 279.43943157003633 18.28530437187682 H 0.0 **** 0.06
1155 H 68.84286086312426 277.78671766804285 18.798658555726433 H 0.0 **** 0.06
1156 C 265.34357318720055 229.90674807628258 310.03003088746 C 0.0 **** -0.24
1157 H 264.501839513826 229.74435032474858 310.7038081108626 H 0.0 **** 0.06
1158 H 265.29068700067097 229.19727300179184 309.20384233588123 H 0.0 **** 0.06
1159 H 266.2773217938022 229.76269767942762 310.5742499389172 H 0.0 **** 0.06
1160 H 265.30487974010356 230.92357121053783 309.6382492079307 H 0.0 **** 0.06
1161 C 1.851022500712304 182.92182828311581 18.563112046812222 C 0.0 **** -0.24
1162 H 1.4474467432838765 181.9818270755423 18.939940508312745 H 0.0 **** 0.06
1163 H 2.718250364027142 182.7193273913058 17.93480832189914 H 0.0 **** 0.06
1164 H 2.1481039128738075 183.5520205038356 19.400884537200113 H 0.0 **** 0.06
1165 H 1.0880445032794341 183.43467613765102 17.97599450205098 H 0.0 **** 0.06
1166 C 134.68743748651764 206.48627365245596 59.744989198780985 C 0.0 **** -0.24
1167 H 135.5614062836698 206.71044566236787 60.35693348017804 H 0.0 **** 0.06
1168 H 134.5974281281506 205.40777943790562 59.62103804778647 H 0.0 **** 0.06
1169 H 134.79857622388135 206.95718259627364 58.768811810803356 H 0.0 **** 0.06
1170 H 133.79419647980262 206.8722205373155 60.23494312566453 H 0.0 **** 0.06
1171 C 164.52641639485694 39.51828592711229 13.277885747180221 C 0.0 **** -0.24
1172 H 164.47325640252882 38.42916449267935 13.297757135839532 H 0.0 **** 0.06
1173 H 164.8406588601785 39.84761693001502 12.288262027515984 H 0.0 **** 0.06
1174 H 165.24796930914994 39.859270144620666 14.020571082280853 H 0.0 **** 0.06
1175 H 163.5452562546409 39.93404968886978 13.506554989426917 H 0.0 **** 0.06
1176 C 211.98288349114523 11.21618737498197 80.8149124278325 C 0.0 **** -0.24
1177 H 212.34733989866675 11.284012785242425 79.78958048473967 H 0.0 **** 0.06
1178 H 211.3129510152496 12.051851717727146 81.01856147954823 H 0.0 **** 0.06
1179 H 212.82672344843735 11.251300554159272 81.50272892469579 H 0.0 **** 0.06
1180 H 211.44469996821255 10.277878775929622 80.94784029124781 H 0.0 **** 0.06
1181 C 105.84893434884435 109.07914351264648 105.77050429364047 C 0.0 **** -0.24
1182 H 105.1225793412602 108.87115128740712 104.98393834370069 H 0.0 **** 0.06
1183 H 106.11175961087801 108.15074445487738 106.27613401451498 H 0.0 **** 0.06
1184 H 105.4163540236249 109.77542264028816 106.48877721351982 H 0.0 **** 0.06
1185 H 106.74347462661413 109.52009924695963 105.33075427213524 H 0.0 **** 0.06
1186 C 206.04182300333093 13.62260187008792 26.216417597611212 C 0.0 **** -0.24
1187 H 205.8229747284323 14.646841097410743 26.51760157094253 H 0.0 **** 0.06
1188 H 206.71893389933177 13.632910911294744 25.36200908269268 H 0.0 **** 0.06
1189 H 205.11481858309486 13.12012401139134 25.940803456298568 H 0.0 **** 0.06
1190 H 206.51036189613427 13.093155267715929 27.046292861164716 H 0.0 **** 0.06
1191 C 32.61739985086632 143.14203958815355 16.527549329351956 C 0.0 **** -0.24
1192 H 32.50046461919442 142.24211125822322 15.923404061657195 H 0.0 **** 0.06
1193 H 33.373611846154375 142.96860144845144 17.293270545303727 H 0.0 **** 0.06
1194 H 31.667736678922267 143.3864600540894 17.002259599351405 H 0.0 **** 0.06
1195 H 32.92838859543875 143.96873163852146 15.889664073427227 H 0.0 **** 0.06
1196 C 129.3000061284452 128.31407587658998 228.87810043586688 C 0.0 **** -0.24
1197 H 130.34169382950228 128.33481578238116 229.1984017625394 H 0.0 **** 0.06
1198 H 129.25090432592205 128.08526978468547 227.81372262077463 H 0.0 **** 0.06
1199 H 128.84447594347986 129.28718528252523 229.06269915340283 H 0.0 **** 0.06
1200 H 128.76328722559947 127.54978604395717 229.43940001472401 H 0.0 **** 0.06
1201 C 15.673309799733644 28.06843265113193 227.3409505972524 C 0.0 **** -0.24
1202 H 16.25412312709686 27.248813999441694 227.765548642883 H 0.0 **** 0.06
1203 H 14.614597438152984 27.902498453344265 227.540581076098 H 0.0 **** 0.06
1204 H 15.837669701022506 28.110332476318206 226.2645953706324 H 0.0 **** 0.06
1205 H 15.986045140732756 29.00876265690252 227.79422251770762 H 0.0 **** 0.06
1206 C 311.3314976173692 194.29665157635924 75.71877835261066 C 0.0 **** -0.24
1207 H 310.80568803944493 193.36973663455092 75.48869069422713 H 0.0 **** 0.06
1208 H 312.38333815020144 194.19230356295094 75.45291309575089 H 0.0 **** 0.06
1209 H 311.24520727845567 194.50768982402883 76.78425297989912 H 0.0 **** 0.06
1210 H 310.8912426781555 195.11470936002405 75.14945647807252 H 0.0 **** 0.06
1211 C 46.36786995318175 172.39239428558403 174.42547234540757 C 0.0 **** -0.24
1212 H 45.69458182657843 173.19143197044394 174.11587708615656 H 0.0 **** 0.06
1213 H 46.50922207912373 172.43545632673732 175.50627463789527 H 0.0 **** 0.06
1214 H 47.33002765270817 172.51495055156443 173.92804710148772 H 0.0 **** 0.06
1215 H 45.93828384579683 171.42834432129342 174.15348743446845 H 0.0 **** 0.06
1216 C 17.482275563311603 204.04523099764617 60.076374913342846 C 0.0 **** -0.24
1217 H 18.169379539084673 203.44293958082898 60.67081879313494 H 0.0 **** 0.06
1218 H 17.953282843661526 204.99752454452766 59.83234931412639 H 0.0 **** 0.06
1219 H 16.57056330291624 204.2246417096365 60.64544775294834 H 0.0 **** 0.06
1220 H 17.237676602952902 203.51361496092068 59.1559320335075 H 0.0 **** 0.06
1221 C 312.8284957862311 72.10242595345593 216.662452675633 C 0.0 **** -0.24
1222 H 312.85483689417924 71.89784622312018 217.73295145272897 H 0.0 **** 0.06
1223 H 311.8543524427339 71.8216078528016 216.26373437319614 H 0.0 **** 0.06
1224 H 313.60685847045016 71.52523280937913 216.16396099721777 H 0.0 **** 0.06
1225 H 312.99847453415 73.16617631149307 216.4922241322706 H 0.0 **** 0.06
1226 C 25.412631601167902 248.65724711092975 179.19332452828377 C 0.0 **** -0.24
1227 H 24.823362185437986 249.12442549259046 179.98275550563733 H 0.0 **** 0.06
1228 H 26.447739169462977 248.99089388350805 179.26658094978677 H 0.0 **** 0.06
1229 H 25.005891707800657 248.93972081912722 178.22247870542265 H 0.0 **** 0.06
1230 H 25.3711228441735 247.57267889353525 179.30308865568333 H 0.0 **** 0.06
1231 C 290.4136272508461 2.97867804151646 127.50586920510355 C 0.0 **** -0.24
1232 H 290.12570198448725 2.0698815568563163 126.97755931536426 H 0.0 **** 0.06
1233 H 290.30622064647275 3.834825650084454 126.83963317715211 H 0.0 **** 0.06
1234 H 291.45155025644715 2.8968936917322026 127.82832928611248 H 0.0 **** 0.06
1235 H 289.77124512347746 3.1113824791955267 128.37655231952186 H 0.0 **** 0.06
1236 C 283.0616112007991 19.505240069311043 302.5372917853657 C 0.0 **** -0.24
1237 H 283.4527214743663 18.93542963473388 303.38070104337555 H 0.0 **** 0.06
1238 H 281.97859254435605 19.389821655319906 302.49211955606455 H 0.0 **** 0.06
1239 H 283.50521823920633 19.137105254091423 301.6123788695932 H 0.0 **** 0.06
1240 H 283.31014240150444 20.558763531669413 302.6653539045649 H 0.0 **** 0.06
1241 C 90.31354948875713 303.21116410090895 95.47574322248298 C 0.0 **** -0.24
1242 H 89.62862605364637 303.930886469346 95.92435881693123 H 0.0 **** 0.06
1243 H 91.3415452949883 303.52191190846884 95.66653572702418 H 0.0 **** 0.06
1244 H 90.14095478253523 303.16654020959476 94.40054178811812 H 0.0 **** 0.06
1245 H 90.14393284038786 302.22721187897406 95.9123558254328 H 0.0 **** 0.06
1246 C 29.91537432665072 201.54447169750546 158.38023842337077 C 0.0 **** -0.24
1247 H 30.201643668895855 200.54026661689363 158.6936397187381 H 0.0 **** 0.06
1248 H 29.013372988473122 201.84763032886735 158.9117135211264 H 0.0 **** 0.06
1249 H 29.72518923196381 201.5495907667767 157.30683180136668 H 0.0 **** 0.06
1250 H 30.723255043275458 202.23935162671086 158.60855175987518 H 0.0 **** 0.06
1251 C 41.41985802597847 30.878060406534246 31.536679542128013 C 0.0 **** -0.24
1252 H 40.67539992962 30.82571622944448 32.33132699935243 H 0.0 **** 0.06
1253 H 41.931756591487755 31.83986187792584 31.58086259868105 H 0.0 **** 0.06
1254 H 40.92768732855882 30.77182149494695 30.569893294490214 H 0.0 **** 0.06
1255 H 42.14474887576611 30.07347086437312 31.66494208457067 H 0.0 **** 0.06
1256 C 118.08200313524168 151.47769452155535 188.15480977006905 C 0.0 **** -0.24
1257 H 117.41308667273398 150.61798134669868 188.11634715441238 H 0.0 **** 0.06
1258 H 119.11188348405699 151.14210225464774 188.03066207538456 H 0.0 **** 0.06
1259 H 117.97533638522086 151.97785732797837 189.11668851261834 H 0.0 **** 0.06
1260 H 117.82642072130537 152.17230239402573 187.35352586842322 H 0.0 **** 0.06
1261 C 261.1054436791899 87.47922337954392 205.87616636754012 C 0.0 **** -0.24
1262 H 262.1543412330698 87.59936103459319 205.60381509003076 H 0.0 **** 0.06
1263 H 260.6704492582394 88.4571194257567 206.08591510473985 H 0.0 **** 0.06
1264 H 261.0305836512235 86.84989986497294 206.76356382345983 H 0.0 **** 0.06
1265 H 260.5669521435677 87.01072888296315 205.05217721463782 H 0.0 **** 0.06
1266 C 57.94917525461963 121.02587643907063 132.15366152749965 C 0.0 **** -0.24
1267 H 58.29212314288722 120.39970411824905 132.97792260571097 H 0.0 **** 0.06
1268 H 58.80912688442672 121.38287385142232 131.58759758348785 H 0.0 **** 0.06
1269 H 57.394982000035014 121.87711298736755 132.55076797585298 H 0.0 **** 0.06
1270 H 57.29963812642964 120.44261016010984 131.50097682809323 H 0.0 **** 0.06
1271 C 181.75081983102524 155.60151458317603 56.966247090735465 C 0.0 **** -0.24
1272 H 181.83985067798056 154.62845308224854 56.48373059218835 H 0.0 **** 0.06
1273 H 182.21398896855578 156.3612835148806 56.33658617321754 H 0.0 **** 0.06
1274 H 182.2530418820076 155.5753127169628 57.93356959435795 H 0.0 **** 0.06
1275 H 180.6972291922056 155.84060195161823 57.11003285160757 H 0.0 **** 0.06
1276 C 57.48881036053211 309.6407558711438 101.74298950148074 C 0.0 **** -0.24
1277 H 57.868515597856515 310.54670149722 102.21328068384494 H 0.0 **** 0.06
1278 H 58.30427994978055 308.9286813683518 101.61408409459384 H 0.0 **** 0.06
1279 H 57.06400095700718 309.8863627115143 100.7691611771871 H 0.0 **** 0.06
1280 H 56.717635776971804 309.19954009573746 102.3742808369825 H 0.0 **** 0.06
1281 C 74.93719436539035 232.90657164455163 149.63141505190333 C 0.0 **** -0.24
1282 H 75.86099768215718 232.94913744888623 149.054538172697 H 0.0 **** 0.06
1283 H 74.20803892240096 233.59240545820353 149.19963423759083 H 0.0 **** 0.06
1284 H 75.14021499430109 233.19420079121852 150.6633251503349 H 0.0 **** 0.06
1285 H 74.54083927912873 231.89233048600124 149.60788082395106 H 0.0 **** 0.06
1286 C 53.356147803502864 83.30449875036948 208.8764162521843 C 0.0 **** -0.24
1287 H 52.42521867642145 83.6861329250016 208.45694912879623 H 0.0 **** 0.06
1288 H 53.24249171156998 83.17332163667993 209.95324410038967 H 0.0 **** 0.06
1289 H 54.16072629213616 84.01189993233669 208.67856689550163 H 0.0 **** 0.06
1290 H 53.594416216006294 82.34496110379254 208.4165075412544 H 0.0 **** 0.06
1291 C 135.80320811251647 105.55726345835004 34.119345762353646 C 0.0 **** -0.24
1292 H 135.92047526971186 105.33250788364765 33.05895399602207 H 0.0 **** 0.06
1293 H 134.98942953100274 106.27152219832533 34.25100148736533 H 0.0 **** 0.06
1294 H 136.72867133763017 105.98446882149784 34.505278069664655 H 0.0 **** 0.06
1295 H 135.5723175875458 104.63993884225317 34.66078501420236 H 0.0 **** 0.06
1296 C 107.27953377354126 284.7816822257987 94.17143813900557 C 0.0 **** -0.24
1297 H 106.3110854807274 284.71662247902043 94.66783967546928 H 0.0 **** 0.06
1298 H 107.4033804056372 285.7777936289078 93.74736216566313 H 0.0 **** 0.06
1299 H 107.33141543566853 284.0381009185192 93.37617812977936 H 0.0 **** 0.06
1300 H 108.07161725468262 284.5933925176674 94.89635337251684 H 0.0 **** 0.06
1301 C 129.05433203332802 100.89579901307292 48.12812419779115 C 0.0 **** -0.24
1302 H 129.51277834465492 101.37189371378949 47.261496731961415 H 0.0 **** 0.06
1303 H 128.19302465376194 101.4817477366729 48.449647203551564 H 0.0 **** 0.06
1304 H 129.78041017784997 100.83975318434122 48.93825488878849 H 0.0 **** 0.06
1305 H 128.73068852985028 99.8898606178416 47.859518202387136 H 0.0 **** 0.06
1306 C 304.1883174476454 40.99056666929968 79.18274922176997 C 0.0 **** -0.24
1307 H 304.39899981399503 41.53312062707977 78.26154213860727 H 0.0 **** 0.06
1308 H 303.1144645995954 40.993562074959215 79.36929261514757 H 0.0 **** 0.06
1309 H 304.70319676676627 41.47408143593114 80.01420464246402 H 0.0 **** 0.06
1310 H 304.5381947885051 39.96307152814376 79.0869685988003 H 0.0 **** 0.06
1311 C 242.43542590757627 110.10082617932827 81.26699008249986 C 0.0 **** -0.24
1312 H 241.76799238708895 109.62837660882875 81.98756641303194 H 0.0 **** 0.06
1313 H 241.85174676843332 110.70343679489775 80.5708338787222 H 0.0 **** 0.06
1314 H 242.97689505098407 109.33151276198257 80.71535398132664 H 0.0 **** 0.06
1315 H 243.14533497744404 110.73853796175328 81.79251661776371 H 0.0 **** 0.06
1316 C 297.9088490283375 173.09617392748135 102.18301335120202 C 0.0 **** -0.24
1317 H 296.89030486032823 172.86122392812933 102.49435340990294 H 0.0 **** 0.06
1318 H 297.8934694281638 173.50215501682368 101.17108984757812 H 0.0 **** 0.06
1319 H 298.5125731902489 172.18860669934259 102.20199267048199 H 0.0 **** 0.06
1320 H 298.3356283088701 173.8321654797914 102.86454781953583 H 0.0 **** 0.06
1321 C 88.18447846171611 274.48834282803114 217.6631649021923 C 0.0 **** -0.24
1322 H 88.06311280762725 273.85674064030394 218.54282642885659 H 0.0 **** 0.06
1323 H 89.23106608732661 274.7795981382658 217.56656240508892 H 0.0 **** 0.06
1324 H 87.56702099723876 275.3815307854433 217.7691267442883 H 0.0 **** 0.06
1325 H 87.87633111591455 273.93748011476055 216.77553669952172 H 0.0 **** 0.06
1326 C 27.651005017181518 238.44963830756257 120.67505296259083 C 0.0 **** -0.24
1327 H 26.839713426982 239.06605525672046 120.28838198036658 H 0.0 **** 0.06
1328 H 27.556231979699476 238.36352527000548 121.7580584895646 H 0.0 **** 0.06
1329 H 28.60709412019594 238.91207599101256 120.4288673252457 H 0.0 **** 0.06
1330 H 27.599271197022773 237.45854238053417 120.22551228544197 H 0.0 **** 0.06
1331 C 223.3203088138009 34.578342373391195 238.01814590545473 C 0.0 **** -0.24
1332 H 223.73231435483856 35.51321974536944 237.6397954356334 H 0.0 **** 0.06
1333 H 224.11707496904717 33.988464937855326 238.47166399384548 H 0.0 **** 0.06
1334 H 222.87537134747924 34.01812148677675 237.1970797999634 H 0.0 **** 0.06
1335 H 222.55715313931523 34.79424772935906 238.7660621073433 H 0.0 **** 0.06
1336 C 301.8783203345849 1.1687927628786952 135.4030639410978 C 0.0 **** -0.24
1337 H 302.26363469191745 0.5105772256844148 136.18060911304315 H 0.0 **** 0.06
1338 H 300.7906853356777 1.1012611590578558 135.3765886305355 H 0.0 **** 0.06
1339 H 302.284463667069 0.867860068344271 134.43739243562936 H 0.0 **** 0.06
1340 H 302.1733179295081 2.195706436357682 135.61692153994787 H 0.0 **** 0.06
1341 C 105.66079703760676 93.35104550197539 150.2024608095773 C 0.0 **** -0.24
1342 H 105.69595705757604 92.70600995860076 149.3239016052305 H 0.0 **** 0.06
1343 H 105.95284931639239 92.78053295022369 151.08367998844045 H 0.0 **** 0.06
1344 H 104.64652878010472 93.73075117784825 150.33328458478888 H 0.0 **** 0.06
1345 H 106.3471212086101 94.18732562921087 150.0669099553685 H 0.0 **** 0.06
1346 C 23.581291040573717 5.682582778627705 58.7486202769135 C 0.0 **** -0.24
1347 H 22.585491584616392 5.964436939134529 59.09059838327906 H 0.0 **** 0.06
1348 H 24.18672698554414 6.5794158974951245 58.61360535983104 H 0.0 **** 0.06
1349 H 23.502259956232848 5.15162678364031 57.8002036137224 H 0.0 **** 0.06
1350 H 24.05084400530714 5.03506555708303 59.489109852105884 H 0.0 **** 0.06
1351 C 161.0315942403506 99.8697707399692 189.75215544063627 C 0.0 **** -0.24
1352 H 160.33374129989983 99.84000823846185 190.58865936459142 H 0.0 **** 0.06
1353 H 160.55538156205222 100.35684149850974 188.899675574004 H 0.0 **** 0.06
1354 H 161.31457763328876 98.85363713246059 189.4785695527604 H 0.0 **** 0.06
1355 H 161.9215161717874 100.43013463587371 190.04020511314684 H 0.0 **** 0.06
1356 C 54.720553472838645 95.37970857182631 310.1449645945864 C 0.0 **** -0.24
1357 H 55.11024961213988 96.3961569597426 310.2008568471005 H 0.0 **** 0.06
1358 H 54.897880558898066 94.87106199841938 311.0925114891738 H 0.0 **** 0.06
1359 H 55.22562541889954 94.84090799157599 309.34355857267724 H 0.0 **** 0.06
1360 H 53.65012791190529 95.41217362329286 309.94318132836077 H 0.0 **** 0.06
1361 C 275.98887950130626 146.66911759876004 284.20053120091916 C 0.0 **** -0.24
1362 H 275.5403509351739 145.6920795854356 284.3776334073381 H 0.0 **** 0.06
1363 H 276.79298617589916 146.8347197710379 284.9174598765102 H 0.0 **** 0.06
1364 H 275.2303596883617 147.44395252800595 284.318178480132 H 0.0 **** 0.06
1365 H 276.39124380853605 146.7056156810243 283.1880430748823 H 0.0 **** 0.06
1366 C 224.95585278736402 108.93387003471508 45.5738236605323 C 0.0 **** -0.24
1367 H 224.89756860131527 109.41881478442286 46.54803200133679 H 0.0 **** 0.06
1368 H 225.8992972777778 109.196491526968 45.09423446175592 H 0.0 **** 0.06
1369 H 224.12680319638568 109.26800834158618 44.95135220733465 H 0.0 **** 0.06
1370 H 224.90158731769884 107.85359658990353 45.70241559586904 H 0.0 **** 0.06
1371 C 196.80831168971906 181.81865908446792 1.1747815296487545 C 0.0 **** -0.24
1372 H 197.39003972207536 182.33232341595692 0.40962154691086994 H 0.0 **** 0.06
1373 H 195.7476048205125 182.01632405422805 1.0179859613795372 H 0.0 **** 0.06
1374 H 197.10449224022443 182.17936282998505 2.158779614157538 H 0.0 **** 0.06
1375 H 196.9917508125605 180.74581941098324 1.1107543791975445 H 0.0 **** 0.06
1376 C 52.79872430079584 284.76288214908186 152.65813330750262 C 0.0 **** -0.24
1377 H 53.30701956048077 283.8928140159906 153.07306911004832 H 0.0 **** 0.06
1378 H 52.14592900276182 285.1971747484393 153.41572791522248 H 0.0 **** 0.06
1379 H 52.204525827178315 284.46026567639035 151.79601568593625 H 0.0 **** 0.06
1380 H 53.53852088478715 285.5016876833886 152.34899458553184 H 0.0 **** 0.06
1381 C 169.83006843399403 89.20107318673146 12.328311532443777 C 0.0 **** -0.24
1382 H 169.6504504537104 89.65795453404036 13.300860328114837 H 0.0 **** 0.06
1383 H 170.18487649893405 89.9599937942375 11.630125952568605 H 0.0 **** 0.06
1384 H 168.9018756148556 88.76941373029058 11.953614915354805 H 0.0 **** 0.06
1385 H 170.5814362928498 88.41762938801733 12.427288827919952 H 0.0 **** 0.06
1386 C 281.1923772926169 201.75547579042376 222.6908327213355 C 0.0 **** -0.24
1387 H 282.09962361306896 202.02831271484325 222.15250245729067 H 0.0 **** 0.06
1388 H 280.74215390849884 200.87912511312567 222.22432254381684 H 0.0 **** 0.06
1389 H 280.48762772793924 202.58663722412894 222.6591455951911 H 0.0 **** 0.06
1390 H 281.43941471908056 201.52847159883538 223.72769334590325 H 0.0 **** 0.06
1391 C 122.91723821883187 19.563618869259557 167.02870872347307 C 0.0 **** -0.24
1392 H 123.85681377255568 19.07757338267622 166.76568607368387 H 0.0 **** 0.06
1393 H 122.97587290230277 19.939086120306982 168.05065621249776 H 0.0 **** 0.06
1394 H 122.10168977020484 18.844736939458272 166.95040260227063 H 0.0 **** 0.06
1395 H 122.735460075757 20.394192582939937 166.3463639685791 H 0.0 **** 0.06
1396 C 217.20607184946 35.980573042982 40.201676235346724 C 0.0 **** -0.24
1397 H 217.64758547067498 36.72387461270759 40.8651035834844 H 0.0 **** 0.06
1398 H 217.8954978634785 35.767480996930374 39.38477728151838 H 0.0 **** 0.06
1399 H 216.26989459343937 36.365684899601376 39.79695366974198 H 0.0 **** 0.06
1400 H 217.010441516884 35.06509706869386 40.760342383504906 H 0.0 **** 0.06
1401 C 312.3717497856163 219.44790094347633 185.41957638837647 C 0.0 **** -0.24
1402 H 312.33267215483505 220.43608463063654 185.87966257204005 H 0.0 **** 0.06
1403 H 313.000696341649 219.48696896757187 184.5292161933321 H 0.0 **** 0.06
1404 H 311.3653182329557 219.13681802963532 185.14196822144578 H 0.0 **** 0.06
1405 H 312.7899545283765 218.73410410457672 186.12984128215942 H 0.0 **** 0.06
1406 C 291.53648252942287 268.2233958442065 34.17210524523409 C 0.0 **** -0.24
1407 H 291.2518922704186 267.9654992811769 35.19198028422147 H 0.0 **** 0.06
1408 H 291.06251505065995 267.5301584362477 33.47701239067362 H 0.0 **** 0.06
1409 H 292.61998186473807 268.1569289546941 34.069378925875185 H 0.0 **** 0.06
1410 H 291.2127802492623 269.2404774771702 33.95049040645068 H 0.0 **** 0.06
1411 C 46.17210380952801 65.38665800731769 1.383940185406459 C 0.0 **** -0.24
1412 H 45.76122765902949 64.38593395075978 1.2479824550431005 H 0.0 **** 0.06
1413 H 46.42469316800478 65.53570816973857 2.4338235197694047 H 0.0 **** 0.06
1414 H 45.43236649123335 66.12727669429404 1.0781706391662453 H 0.0 **** 0.06
1415 H 47.068884465419046 65.49681712078043 0.7741559815569161 H 0.0 **** 0.06
1416 C 153.50702346915688 113.69363740693228 136.4743802101393 C 0.0 **** -0.24
1417 H 153.42615673971505 112.902290159443 135.7300097040771 H 0.0 **** 0.06
1418 H 153.49431168827806 113.25623201166175 137.4725757219264 H 0.0 **** 0.06
1419 H 152.66633075710496 114.38002158079868 136.3675350646365 H 0.0 **** 0.06
1420 H 154.44014033497854 114.23680440046789 136.32722764104224 H 0.0 **** 0.06
1421 C 215.95044414084998 238.20830440197955 303.60484303407264 C 0.0 **** -0.24
1422 H 216.85667022583038 238.8052049216364 303.70865730778075 H 0.0 **** 0.06
1423 H 215.71500495589916 237.73680215237115 304.5593677179712 H 0.0 **** 0.06
1424 H 216.108141164947 237.43962600745496 302.84887377519414 H 0.0 **** 0.06
1425 H 215.12490553036713 238.85187264607302 303.30198124271897 H 0.0 **** 0.06
1426 C 241.284922322481 81.15209664343152 243.7092019716457 C 0.0 **** -0.24
1427 H 240.97132751934106 80.88814910663217 242.69931566804388 H 0.0 **** 0.06
1428 H 241.3112970957093 80.25418339425343 244.32868040542192 H 0.0 **** 0.06
1429 H 240.58003243533352 81.866030184223 244.1339236347668 H 0.0 **** 0.06
1430 H 242.2788597847354 81.59959197675036 243.67610207835145 H 0.0 **** 0.06
1431 C 92.21970290642253 99.1502523201359 156.70823631706298 C 0.0 **** -0.24
1432 H 92.58661395470176 99.13529207979454 155.68172580766122 H 0.0 **** 0.06
1433 H 92.50425152203422 100.09143153676456 157.1814848029606 H 0.0 **** 0.06
1434 H 92.65570231092693 98.31855920086491 157.26154493250823 H 0.0 **** 0.06
1435 H 91.13358204615338 99.05789343399596 156.7066043302945 H 0.0 **** 0.06
1436 C 32.963586661531195 280.0548231344381 249.1162408566618 C 0.0 **** -0.24
1437 H 31.95540662403593 280.4337360684352 249.28395594397554 H 0.0 **** 0.06
1438 H 32.942031188801025 278.9652746181383 249.0933117881414 H 0.0 **** 0.06
1439 H 33.61592666707179 280.3896191719954 249.92236893428856 H 0.0 **** 0.06
1440 H 33.33883199014815 280.4309443136394 248.16478137283332 H 0.0 **** 0.06
1441 C 21.860431052388094 263.73530701461135 20.050823951186203 C 0.0 **** -0.24
1442 H 20.998409498122044 264.3982202652002 19.96550560717685 H 0.0 **** 0.06
1443 H 21.516954538130108 262.71096658900507 20.198343206390632 H 0.0 **** 0.06
1444 H 22.469550391062285 264.0405332605519 20.901594143141324 H 0.0 **** 0.06
1445 H 22.45412141124268 263.7926683840494 19.138505596139794 H 0.0 **** 0.06
1446 C 92.20676773925501 209.9348726522931 280.22522396213554 C 0.0 **** -0.24
1447 H 92.16779983817918 209.71677055121154 281.2917286827075 H 0.0 **** 0.06
1448 H 92.92004116028798 210.7408839139963 280.0455179952714 H 0.0 **** 0.06
1449 H 91.21873994246167 210.2409807905683 279.8804019304398 H 0.0 **** 0.06
1450 H 92.52118206028109 209.0435214181423 279.6826044262838 H 0.0 **** 0.06
1451 C 155.49072778284238 268.19516042379075 172.68507494992593 C 0.0 **** -0.24
1452 H 155.17050794469924 267.4318412080076 171.97633707360416 H 0.0 **** 0.06
1453 H 154.89979619613126 269.0992429259181 172.53728442083582 H 0.0 **** 0.06
1454 H 156.5452485098565 268.42065889225665 172.52468845067432 H 0.0 **** 0.06
1455 H 155.34795030898624 267.8295382396391 173.7014992497231 H 0.0 **** 0.06
1456 C 209.11855865068213 310.7460712796596 110.94719035569003 C 0.0 **** -0.24
1457 H 208.0752625854347 310.7974465084965 111.2584141584905 H 0.0 **** 0.06
1458 H 209.69558428228427 311.50047407911745 111.4819764685212 H 0.0 **** 0.06
1459 H 209.18682372704973 310.9295468351094 109.8748103153907 H 0.0 **** 0.06
1460 H 209.5163447339292 309.75609038736525 111.17291013762053 H 0.0 **** 0.06
1461 C 171.37132237275284 293.43666433722046 155.22871868707352 C 0.0 **** -0.24
1462 H 171.49826940120704 294.3487434319654 155.81222406712436 H 0.0 **** 0.06
1463 H 172.33981548714303 293.11121755598043 154.84906512185825 H 0.0 **** 0.06
1464 H 170.69850644736613 293.6308981506114 154.3932449845115 H 0.0 **** 0.06
1465 H 170.94787890317343 292.65701181134074 155.86203055144176 H 0.0 **** 0.06
1466 C 126.45842240773158 302.4511269650855 21.545131416496872 C 0.0 **** -0.24
1467 H 127.11420052212861 301.78905972677956 20.979656937190015 H 0.0 **** 0.06
1468 H 126.85405566821987 302.5806909079513 22.552816814191658 H 0.0 **** 0.06
1469 H 125.46081304101125 302.0137716058937 21.598780246147868 H 0.0 **** 0.06
1470 H 126.40416136204172 303.4194055314838 21.048134732339832 H 0.0 **** 0.06
1471 C 79.35036673862652 11.202574624355918 271.86295374383883 C 0.0 **** -0.24
1472 H 79.3159638043706 10.11823517981567 271.96917407038785 H 0.0 **** 0.06
1473 H 79.74512829184505 11.644966007561607 272.7770782024932 H 0.0 **** 0.06
1474 H 78.34488751423791 11.582026352877477 271.67963907688534 H 0.0 **** 0.06
1475 H 79.99586668241193 11.464072910005697 271.02371907772454 H 0.0 **** 0.06
1476 C 95.8434705571928 133.4897148362257 42.976893590017255 C 0.0 **** -0.24
1477 H 95.77739806704494 134.50534309456845 42.587437540737426 H 0.0 **** 0.06
1478 H 94.85728852719066 133.0255784715875 42.95103259406318 H 0.0 **** 0.06
1479 H 96.20579685496605 133.51761876856003 44.00531003369869 H 0.0 **** 0.06
1480 H 96.53455231338592 132.90968964896925 42.36431694696023 H 0.0 **** 0.06
1481 C 119.89970523757859 184.23278128285392 169.07097114124213 C 0.0 **** -0.24
1482 H 119.72674226637278 184.0130302418762 168.01731814246932 H 0.0 **** 0.06
1483 H 120.80770667890943 183.7299294258621 169.40199793322682 H 0.0 **** 0.06
1484 H 119.05267977259084 183.87997265738926 169.6600596653401 H 0.0 **** 0.06
1485 H 120.01094600406842 185.3089371589288 169.20356590751624 H 0.0 **** 0.06
1486 C 177.58888821015057 200.42494422086395 82.70681469240111 C 0.0 **** -0.24
1487 H 178.17507676310908 199.95717121714296 81.91446769963383 H 0.0 **** 0.06
1488 H 177.88901210049295 200.0145521320373 83.67059232779607 H 0.0 **** 0.06
1489 H 176.53033206408003 200.22621258855088 82.54027348913692 H 0.0 **** 0.06
1490 H 177.76309147651352 201.50085604493205 82.69924381033118 H 0.0 **** 0.06
1491 C 93.02638918885839 124.1053758463865 311.9922782973489 C 0.0 **** -0.24
1492 H 92.4896217485499 123.17334836179958 312.1661513202571 H 0.0 **** 0.06
1493 H 92.60437949046388 124.88936515706834 312.62148885634144 H 0.0 **** 0.06
1494 H 92.93238780688012 124.38881394541878 310.94404457649443 H 0.0 **** 0.06
1495 H 94.0791112119336 123.96919614121396 312.2386068929659 H 0.0 **** 0.06
1496 C 219.28080919888464 127.27405054460738 211.78146106506676 C 0.0 **** -0.24
1497 H 219.32488505382673 126.93393741405905 212.8163923333559 H 0.0 **** 0.06
1498 H 219.075063346364 128.34509747764082 211.75997922155582 H 0.0 **** 0.06
1499 H 218.4882666756093 126.7408682292793 211.25752279386364 H 0.0 **** 0.06
1500 H 220.2357308594104 127.07766670805702 211.29385429584406 H 0.0 **** 0.06
1501 C 153.92517647841692 194.72083386998628 266.90464947956 C 0.0 **** -0.24
1502 H 154.56174646319113 195.31465011315385 267.5606794135416 H 0.0 **** 0.06
1503 H 153.41778024277124 193.9524797161152 267.4888646016114 H 0.0 **** 0.06
1504 H 154.5365443579181 194.24885547205224 266.1353068646091 H 0.0 **** 0.06
1505 H 153.18414964453035 195.3685178599315 266.4343803671667 H 0.0 **** 0.06
1506 C 69.81294953194481 146.82942905858658 265.8338012074062 C 0.0 **** -0.24
1507 H 69.64288578530514 145.76971262880406 266.0223768094131 H 0.0 **** 0.06
1508 H 70.43750857569322 146.9453119945065 264.9484699177598 H 0.0 **** 0.06
1509 H 70.31415441384871 147.27577825046134 266.6930988383057 H 0.0 **** 0.06
1510 H 68.85625003992158 147.32675968185586 265.67266559620793 H 0.0 **** 0.06
1511 C 307.1010789375147 299.68656645786587 57.29089752537041 C 0.0 **** -0.24
1512 H 307.615726839428 298.74455378972846 57.10242997227266 H 0.0 **** 0.06
1513 H 306.1905039978829 299.49519348898997 57.859271538910235 H 0.0 **** 0.06
1514 H 306.84621206962055 300.15758196265347 56.34147421390284 H 0.0 **** 0.06
1515 H 307.7531944042283 300.3485949711185 57.86148057817928 H 0.0 **** 0.06
1516 C 180.24843854855231 302.75835959516644 99.61102636290224 C 0.0 **** -0.24
1517 H 180.17529297752964 301.67725757726635 99.72351856861948 H 0.0 **** 0.06
1518 H 181.2924368475915 303.03861154648166 99.46733659321728 H 0.0 **** 0.06
1519 H 179.86200961625065 303.2436530292813 100.50746504710969 H 0.0 **** 0.06
1520 H 179.66450296100334 303.07415192942125 98.74662554139411 H 0.0 **** 0.06
1521 C 258.05939521020804 283.35606770852917 145.49849504527992 C 0.0 **** -0.24
1522 H 257.67191547132444 282.39535866544173 145.16144915801587 H 0.0 **** 0.06
1523 H 259.0212693885425 283.5471399239146 145.02161997978982 H 0.0 **** 0.06
1524 H 258.18779489093265 283.33703384474126 146.5803848643012 H 0.0 **** 0.06
1525 H 257.3568666753445 284.1457986287513 145.22962874462323 H 0.0 **** 0.06
1526 C 80.56596639446437 155.98876512023276 72.74805706819157 C 0.0 **** -0.24
1527 H 80.70377448381734 155.36629864148182 73.6321383784055 H 0.0 **** 0.06
1528 H 79.49968700071997 156.11455465643286 72.55482248003597 H 0.0 **** 0.06
1529 H 81.0371157322262 155.51004878751536 71.8891034442486 H 0.0 **** 0.06
1530 H 81.02205681238175 156.9648079437876 72.91641172761675 H 0.0 **** 0.06
1531 C 51.93001239102924 78.44200585786777 273.60524925765344 C 0.0 **** -0.24
1532 H 51.2977388306046 78.0469389201613 272.8112822551685 H 0.0 **** 0.06
1533 H 52.07647368933846 77.67667460419906 274.3671754407244 H 0.0 **** 0.06
1534 H 51.45197465294996 79.31278877301276 274.0524364439155 H 0.0 **** 0.06
1535 H 52.89597482860884 78.73088803166505 273.19011673393254 H 0.0 **** 0.06
1536 C 312.46407921201535 119.36066540601303 60.76189409559473 C 0.0 **** -0.24
1537 H 313.071831773129 120.10756942619531 61.27264409216855 H 0.0 **** 0.06
1538 H 313.06276852697874 118.46843283331393 60.580120918766795 H 0.0 **** 0.06
1539 H 312.11506345664486 119.76496085313804 59.81143602377509 H 0.0 **** 0.06
1540 H 311.6071557398405 119.10355031427028 61.38452347358313 H 0.0 **** 0.06
1541 C 207.72351131053097 228.79418496766334 301.93648795433296 C 0.0 **** -0.24
1542 H 207.65425824580694 227.84885053455886 301.3980873845228 H 0.0 **** 0.06
1543 H 206.97889150843116 229.48930593408735 301.5466744744841 H 0.0 **** 0.06
1544 H 208.71891149253972 229.21687248300975 301.80251374426007 H 0.0 **** 0.06
1545 H 207.54123435261064 228.62207177137466 302.99685746742426 H 0.0 **** 0.06
1546 C 166.9891082574128 1.6193512505309968 158.06363455665394 C 0.0 **** -0.24
1547 H 166.50926154907654 2.0638767495539554 158.93490923325322 H 0.0 **** 0.06
1548 H 167.5339134260176 0.7245439903211235 158.36500085575295 H 0.0 **** 0.06
1549 H 167.68358880926587 2.3365533070984412 157.6257529236354 H 0.0 **** 0.06
1550 H 166.23106221864276 1.3525197254299002 157.32712828306717 H 0.0 **** 0.06
1551 C 112.62905504385532 93.09092447339171 45.67570799190253 C 0.0 **** -0.24
1552 H 112.63851441267272 92.72584631460472 44.6487816033185 H 0.0 **** 0.06
1553 H 111.8045369372879 92.62829046479561 46.218249249748 H 0.0 **** 0.06
1554 H 112.50094099976221 94.17402418696213 45.67366875065568 H 0.0 **** 0.06
1555 H 113.57256713372226 92.83782261643853 46.159753174042095 H 0.0 **** 0.06
1556 C 69.54423582985814 237.81492173544825 50.17071783671753 C 0.0 **** -0.24
1557 H 68.8055024260878 237.07636994407258 50.48025386786637 H 0.0 **** 0.06
1558 H 70.30032405593084 237.33307831061563 49.54959959905156 H 0.0 **** 0.06
1559 H 70.01858168433728 238.2447050506999 51.05219707980902 H 0.0 **** 0.06
1560 H 69.05354732188025 238.60354227764705 49.60072066460708 H 0.0 **** 0.06
1561 C 30.91645215434886 157.43099296629885 21.204835174801104 C 0.0 **** -0.24
1562 H 29.85215582638304 157.39218779457178 21.43962836152329 H 0.0 **** 0.06
1563 H 31.112039712333058 156.84164958221942 20.30908842932901 H 0.0 **** 0.06
1564 H 31.48693289454374 157.0249655751595 22.040071567602297 H 0.0 **** 0.06
1565 H 31.212511522274696 158.46568763398307 21.03156617581837 H 0.0 **** 0.06
1566 C 98.0858212755823 41.03231710408261 210.9620914738655 C 0.0 **** -0.24
1567 H 98.76323995373878 40.37222769257187 210.42050929871564 H 0.0 **** 0.06
1568 H 97.12030319166908 40.54052698136121 211.08366720416527 H 0.0 **** 0.06
1569 H 97.95388579633962 41.95698375641962 210.4002774823349 H 0.0 **** 0.06
1570 H 98.50521458584709 41.2586666419744 211.94129598688818 H 0.0 **** 0.06
1571 C 275.47068344764864 47.810625116603376 205.1770249237441 C 0.0 **** -0.24
1572 H 276.2262666271847 48.594264713504316 205.14449214497643 H 0.0 **** 0.06
1573 H 274.6023037221105 48.165982714559135 205.73270917266223 H 0.0 **** 0.06
1574 H 275.88107016977756 46.929423622191734 205.668981232087 H 0.0 **** 0.06
1575 H 275.1703247991144 47.55265032608824 204.16077542382993 H 0.0 **** 0.06
1576 C 164.8711058817729 87.29807618581754 213.51102741656945 C 0.0 **** -0.24
1577 H 164.63970353067145 88.0077903097353 212.71759174922863 H 0.0 **** 0.06
1578 H 165.34788135958922 86.416254297834 213.08252811257802 H 0.0 **** 0.06
1579 H 163.95063146765887 87.00438308970342 214.01639616501689 H 0.0 **** 0.06
1580 H 165.54614363146845 87.76437788260702 214.2289146749028 H 0.0 **** 0.06
1581 C 289.49434983698353 210.55359297366098 119.88766061630946 C 0.0 **** -0.24
1582 H 290.06637309507494 211.28416928967755 120.45889785673222 H 0.0 **** 0.06
1583 H 289.9423704637545 210.4307898836756 118.90182682348328 H 0.0 **** 0.06
1584 H 288.46641293632626 210.9019479368064 119.77928208852117 H 0.0 **** 0.06
1585 H 289.50016478566573 209.59852994180784 120.41137536126948 H 0.0 **** 0.06
1586 C 40.6234604655059 85.41417334833295 229.2595073723845 C 0.0 **** -0.24
1587 H 40.588934938486574 84.34904548762796 229.49179810667343 H 0.0 **** 0.06
1588 H 40.07103393584481 85.96851398538098 230.01827659805295 H 0.0 **** 0.06
1589 H 40.17553479419411 85.58725956975627 228.28161775831776 H 0.0 **** 0.06
1590 H 41.66088530439197 85.74887149444862 229.24868120562326 H 0.0 **** 0.06
1591 C 135.29436777063543 52.63786781769397 255.613806496287 C 0.0 **** -0.24
1592 H 136.10741579438314 52.976048323596956 256.2559733009784 H 0.0 **** 0.06
1593 H 135.0788762316224 53.40277239726515 254.86790118745014 H 0.0 **** 0.06
1594 H 134.40541454047386 52.45791752035353 256.21777039571816 H 0.0 **** 0.06
1595 H 135.5867693760415 51.71377936032104 255.11386531994992 H 0.0 **** 0.06
1596 C 31.952383008400574 22.458843615000262 132.85554005702562 C 0.0 **** -0.24
1597 H 32.653983733269 23.191685537246315 133.25321893107238 H 0.0 **** 0.06
1598 H 32.3974438175552 21.46463082788449 132.90477585602756 H 0.0 **** 0.06
1599 H 31.72261444529201 22.703235692433395 131.81765553688672 H 0.0 **** 0.06
1600 H 31.03505574533679 22.476703312801988 133.4445010711779 H 0.0 **** 0.06
1601 C 61.48796945723083 26.69089293236118 177.09094491049404 C 0.0 **** -0.24
1602 H 61.829261360921265 25.957125302204076 177.821338812821 H 0.0 **** 0.06
1603 H 60.66633323231187 27.26868197632018 177.51362218949185 H 0.0 **** 0.06
1604 H 61.1478217433708 26.17729774511122 176.19217694124018 H 0.0 **** 0.06
1605 H 62.310824870589954 27.359917631213477 176.83697783419439 H 0.0 **** 0.06
1606 C 1.614349077425402 300.15455584499716 304.7455268270666 C 0.0 **** -0.24
1607 H 0.6909352182166231 299.73885915151635 304.34346408406634 H 0.0 **** 0.06
1608 H 2.380339984361285 300.1545184177181 303.9688413775459 H 0.0 **** 0.06
1609 H 1.9496817887157931 299.5481978714647 305.5867261666741 H 0.0 **** 0.06
1610 H 1.4369504549084695 301.1760354726347 305.08124165651066 H 0.0 **** 0.06
1611 C 28.71473168065461 292.206862202971 227.8185420632384 C 0.0 **** -0.24
1612 H 28.345599354985694 293.1687088340177 228.1728678021596 H 0.0 **** 0.06
1613 H 27.873179816678714 291.5881474364179 227.5066480929571 H 0.0 **** 0.06
1614 H 29.25581031368401 291.70774664367667 228.62320405871756 H 0.0 **** 0.06
1615 H 29.384751714200263 292.36362570351855 226.97293830763633 H 0.0 **** 0.06
1616 C 86.51511402207265 237.79130567169244 131.0641398559993 C 0.0 **** -0.24
1617 H 85.88200021839378 238.51485441610157 130.54991181409963 H 0.0 **** 0.06
1618 H 87.5469548287951 238.14235218570548 131.05606247795504 H 0.0 **** 0.06
1619 H 86.4542763272888 236.8291548433266 130.55559299670566 H 0.0 **** 0.06
1620 H 86.1759635045141 237.68022688352264 132.094254306426 H 0.0 **** 0.06
1621 C 284.46460196408214 15.91962009649717 305.54452670718246 C 0.0 **** -0.24
1622 H 284.2438981004734 14.88235856094795 305.7954144489827 H 0.0 **** 0.06
1623 H 283.69957847259525 16.301547554909973 304.868819061703 H 0.0 **** 0.06
1624 H 285.4394252777968 15.975924899242955 305.0592271810569 H 0.0 **** 0.06
1625 H 284.4771966478126 16.518084889612553 306.45555338962464 H 0.0 **** 0.06
1626 C 151.37937300087913 97.34713178406176 53.14120450093645 C 0.0 **** -0.24
1627 H 151.49211715580753 96.28349808876209 53.34873392815999 H 0.0 **** 0.06
1628 H 150.82859202002624 97.47860821443007 52.21029709124369 H 0.0 **** 0.06
1629 H 152.36456157871152 97.80460224617951 53.04847050491054 H 0.0 **** 0.06
1630 H 150.83350333618972 97.82065457771469 53.957279756863954 H 0.0 **** 0.06
1631 C 227.15843822725702 128.60965000573086 259.5580039529809 C 0.0 **** -0.24
1632 H 227.51500344787502 129.16662850619153 258.6908208413368 H 0.0 **** 0.06
1633 H 227.67953011795004 127.65444514584703 259.61505010113314 H 0.0 **** 0.06
1634 H 226.08691632330078 128.43620774604648 259.46247940888765 H 0.0 **** 0.06
1635 H 227.35367968678548 129.1854540458544 260.4636091856294 H 0.0 **** 0.06
1636 C 116.29734041145767 227.24068143719225 7.626546943709911 C 0.0 **** -0.24
1637 H 115.2963056986992 227.3768052720176 7.21957379110313 H 0.0 **** 0.06
1638 H 116.28147561367456 227.42731465311283 8.70042668639212 H 0.0 **** 0.06
1639 H 116.98285454107807 227.93760083016622 7.145293285223772 H 0.0 **** 0.06
1640 H 116.6282957032368 226.21806438534156 7.440484271132391 H 0.0 **** 0.06
1641 C 95.83062295731276 68.80555205085946 187.3591110975707 C 0.0 **** -0.24
1642 H 96.9137502981794 68.67875720798338 187.34593585030103 H 0.0 **** 0.06
1643 H 95.48603440058423 69.08825394599776 186.3639383893552 H 0.0 **** 0.06
1644 H 95.56514947920937 69.58630527441315 188.07163799858728 H 0.0 **** 0.06
1645 H 95.35890405668803 67.86795911497921 187.6543688127232 H 0.0 **** 0.06
1646 C 141.32499197133316 213.49403995508177 198.8755420519671 C 0.0 **** -0.24
1647 H 140.9950146006642 214.38489851869232 198.34300351302034 H 0.0 **** 0.06
1648 H 141.41648524514625 213.71919241702133 199.93847370697114 H 0.0 **** 0.06
1649 H 142.2925004690355 213.17497654922957 198.48699835663308 H 0.0 **** 0.06
1650 H 140.59547323897732 212.69581759230306 198.7340541218283 H 0.0 **** 0.06
1651 C 43.870364472374604 107.35230496323791 305.61036538776386 C 0.0 **** -0.24
1652 H 44.218248707511975 108.02886688661204 306.3917429393763 H 0.0 **** 0.06
1653 H 44.695484907054265 106.7184643767587 305.28487386554224 H 0.0 **** 0.06
1654 H 43.50329772219402 107.93385960027544 304.76372758895945 H 0.0 **** 0.06
1655 H 43.06511154340933 106.73090338981521 306.0005988425854 H 0.0 **** 0.06
1656 C 5.3384592502842025 117.39455103231822 260.3938960052437 C 0.0 **** -0.24
1657 H 4.5130927303867026 117.33081614839449 259.68362892177447 H 0.0 **** 0.06
1658 H 5.7302078523248525 118.41187323367856 260.40428461618274 H 0.0 **** 0.06
1659 H 6.127528311577024 116.70444548028152 260.0965717886306 H 0.0 **** 0.06
1660 H 4.982077686961915 117.13219094934729 261.38940276694785 H 0.0 **** 0.06
1661 C 123.74724982934612 220.17020820918228 235.30451979194223 C 0.0 **** -0.24
1662 H 122.81273641286103 220.71710207266779 235.4307581677324 H 0.0 **** 0.06
1663 H 123.73555139304804 219.6469063307046 234.348918600939 H 0.0 **** 0.06
1664 H 123.85693142226779 219.44832336982697 236.11362026495155 H 0.0 **** 0.06
1665 H 124.58257767961314 220.8701234473706 235.32700071981407 H 0.0 **** 0.06
1666 C 10.988432998631083 298.37653836188144 239.49107148464893 C 0.0 **** -0.24
1667 H 11.32348338007111 297.35019236521873 239.64477734735942 H 0.0 **** 0.06
1668 H 10.27221339063773 298.40520550559756 238.66967327447827 H 0.0 **** 0.06
1669 H 11.845531788225756 299.0058366545392 239.24936778594835 H 0.0 **** 0.06
1670 H 10.513757260537531 298.74311666963035 240.4008915960137 H 0.0 **** 0.06
1671 C 296.8878755120175 157.80915802727463 183.52550964977416 C 0.0 **** -0.24
1672 H 297.5045367664487 157.11439169161093 182.9543678189832 H 0.0 **** 0.06
1673 H 297.48829594109804 158.66989188057556 183.8207110960896 H 0.0 **** 0.06
1674 H 296.5065693986393 157.30935919908438 184.41551533828545 H 0.0 **** 0.06
1675 H 296.0524352036064 158.14288641932063 182.90974816742602 H 0.0 **** 0.06
1676 C 132.77024103637135 166.41150400835943 15.943225519363182 C 0.0 **** -0.24
1677 H 131.69833558202853 166.22825932681866 16.02528914678568 H 0.0 **** 0.06
1678 H 132.9437449742967 167.46979770309048 15.746070268312522 H 0.0 **** 0.06
1679 H 133.1783340318955 165.81785011350036 15.125511322410532 H 0.0 **** 0.06
1680 H 133.25908141404523 166.13028747613026 16.875129854503044 H 0.0 **** 0.06
1681 C 46.32856039433133 115.2318804170437 115.17442592396418 C 0.0 **** -0.24
1682 H 45.378235893722916 115.19796515272756 115.70771332382697 H 0.0 **** 0.06
1683 H 46.764708466837334 114.23274291716157 115.14681305834819 H 0.0 **** 0.06
1684 H 47.009008065899906 115.91187498294323 115.68663848239922 H 0.0 **** 0.06
1685 H 46.16033976686731 115.58289779481251 114.15635177616426 H 0.0 **** 0.06
1686 C 276.59540550933394 269.47461539445965 112.91296334897001 C 0.0 **** -0.24
1687 H 276.16612812977905 269.49191215060847 111.91081410505583 H 0.0 **** 0.06
1688 H 277.6726541265325 269.3223636448579 112.84383178687528 H 0.0 **** 0.06
1689 H 276.14860271155834 268.6605845836619 113.48462273469275 H 0.0 **** 0.06
1690 H 276.3933381875801 270.42240389155137 113.4106460856978 H 0.0 **** 0.06
1691 C 288.97991220986995 14.899035547563656 105.16798647903866 C 0.0 **** -0.24
1692 H 288.3146101052457 14.404864300370832 105.87558893480681 H 0.0 **** 0.06
1693 H 289.8015724062925 15.367176357014998 105.70942073272514 H 0.0 **** 0.06
1694 H 288.42561266105685 15.659845886969492 104.6179801247448 H 0.0 **** 0.06
1695 H 289.37740263835497 14.16317568068348 104.46816223635179 H 0.0 **** 0.06
1696 C 49.91582080829215 194.31218561100053 307.25460158050424 C 0.0 **** -0.24
1697 H 50.967658847364646 194.03549217409255 307.1758181044589 H 0.0 **** 0.06
1698 H 49.7944843288455 195.35921586358535 306.9780849337002 H 0.0 **** 0.06
1699 H 49.57674909040463 194.16401968101889 308.2798901142493 H 0.0 **** 0.06
1700 H 49.325150696417495 193.68859203274064 306.5827695906384 H 0.0 **** 0.06
1701 C 88.10354152385784 104.5639054260518 186.3062555251006 C 0.0 **** -0.24
1702 H 87.0384172308672 104.71801101184738 186.47444307442458 H 0.0 **** 0.06
1703 H 88.55207269410252 104.12151268778868 187.19621946150858 H 0.0 **** 0.06
1704 H 88.58045834664841 105.5215257978316 186.09524860170393 H 0.0 **** 0.06
1705 H 88.2436380783316 103.89439468864788 185.45744006870052 H 0.0 **** 0.06
1706 C 149.8160285339846 239.45300352855583 231.23426220811902 C 0.0 **** -0.24
1707 H 149.40254827305853 240.2495206867495 231.8538014284802 H 0.0 **** 0.06
1708 H 149.0686138209532 238.67120769954516 231.10156000218709 H 0.0 **** 0.06
1709 H 150.69689361968443 239.03511901595908 231.72028749436902 H 0.0 **** 0.06
1710 H 150.09523954538378 239.85816760490994 230.261970775766 H 0.0 **** 0.06
1711 C 151.13400020157064 218.22659606395155 135.3527415195175 C 0.0 **** -0.24
1712 H 151.3379761113764 217.48773958168968 134.57727567229932 H 0.0 **** 0.06
1713 H 150.3894651111808 217.83058986846495 136.04393031125701 H 0.0 **** 0.06
1714 H 150.7542203067585 219.13986636221392 134.89357385038315 H 0.0 **** 0.06
1715 H 152.05291936679612 218.44664344959807 135.89541366943698 H 0.0 **** 0.06
1716 C 275.8585037904741 277.15671916640827 170.75347483413162 C 0.0 **** -0.24
1717 H 274.96132477826643 276.7253229305496 171.19754966823137 H 0.0 **** 0.06
1718 H 275.78023695695526 278.2444949677414 170.7588100600716 H 0.0 **** 0.06
1719 H 275.9601785623586 276.80458042250564 169.72708558318982 H 0.0 **** 0.06
1720 H 276.7322748643162 276.8524783448366 171.3304540250337 H 0.0 **** 0.06
1721 C 272.28643065009464 292.1273762800262 20.0316366170332 C 0.0 **** -0.24
1722 H 272.14398714056864 291.7112368619261 19.03355836955825 H 0.0 **** 0.06
1723 H 273.32707830647047 292.4308828767763 20.152824728539713 H 0.0 **** 0.06
1724 H 272.0380508225435 291.3733870614618 20.778350128370562 H 0.0 **** 0.06
1725 H 271.6379984980997 292.9934456298876 20.159213925517633 H 0.0 **** 0.06
1726 C 236.5937648835387 155.91037029189602 85.68487297084715 C 0.0 **** -0.24
1727 H 236.17423965146486 156.34757546387647 86.59137259618669 H 0.0 **** 0.06
1728 H 237.3634838039695 155.1864438916653 85.95477611327746 H 0.0 **** 0.06
1729 H 237.03278735912966 156.69730601033314 85.07214889923802 H 0.0 **** 0.06
1730 H 235.80463221149657 155.40998880447916 85.12479499677596 H 0.0 **** 0.06
1731 C 87.98819453834443 309.8634159145828 83.87809385103625 C 0.0 **** -0.24
1732 H 88.8620438255 310.5127960215904 83.92634577119023 H 0.0 **** 0.06
1733 H 88.31211557114904 308.827763071189 83.76691511951287 H 0.0 **** 0.06
1734 H 87.37342159694842 310.14573814910904 83.02328174448914 H 0.0 **** 0.06
1735 H 87.40817996980405 309.96687219993197 84.79414201514504 H 0.0 **** 0.06
1736 C 18.268581653607328 225.57280175081365 130.07888687579154 C 0.0 **** -0.24
1737 H 18.868767138955775 224.79408167980563 129.60919039905926 H 0.0 **** 0.06
1738 H 17.38445788143497 225.76646390561734 129.4709366489769 H 0.0 **** 0.06
1739 H 18.85944417821986 226.4853638443572 130.16094938073988 H 0.0 **** 0.06
1740 H 17.962785224600452 225.24656759633245 131.0730167319934 H 0.0 **** 0.06
1741 C 61.21878362654061 217.7562125692551 191.22083310309324 C 0.0 **** -0.24
1742 H 62.13064614748467 218.14106143241162 191.6759863073549 H 0.0 **** 0.06
1743 H 61.01423971810735 218.30192549078134 190.29904269724784 H 0.0 **** 0.06
1744 H 60.38618000875374 217.88403653120406 191.91208023483023 H 0.0 **** 0.06
1745 H 61.34458472538901 216.69701803468047 190.99594119068718 H 0.0 **** 0.06
1746 C 55.932758689492715 38.172263150209574 102.16239584871909 C 0.0 **** -0.24
1747 H 55.71324361933776 38.276414075533694 103.2241835210564 H 0.0 **** 0.06
1748 H 56.69670851799219 37.40678738716804 102.02277539887967 H 0.0 **** 0.06
1749 H 56.29478019753634 39.12344213321947 101.77158346165234 H 0.0 **** 0.06
1750 H 55.02649033086391 37.881913377208406 101.6297298867288 H 0.0 **** 0.06
1751 C 205.6002342857862 56.175990274687535 87.67644605849839 C 0.0 **** -0.24
1752 H 206.5608025009995 55.87436466412538 87.25941123669472 H 0.0 **** 0.06
1753 H 205.00330468706989 56.65841375156677 86.90202369559964 H 0.0 **** 0.06
1754 H 205.76433171027315 56.87560330106251 88.49684840161794 H 0.0 **** 0.06
1755 H 205.0735604801693 55.296937347450836 88.04851460805611 H 0.0 **** 0.06
1756 C 12.35988131882283 285.8794275519311 216.84711614379032 C 0.0 **** -0.24
1757 H 13.361069736812055 286.0818220424579 216.46613113938594 H 0.0 **** 0.06
1758 H 12.428149226253765 285.2323292426785 217.72200277882644 H 0.0 **** 0.06
1759 H 11.769921758545138 285.3860474992863 216.07459676438916 H 0.0 **** 0.06
1760 H 11.882097572833686 286.818533230558 217.12588049857317 H 0.0 **** 0.06
1761 C 151.16571484862078 55.97818504701314 276.54130427820536 C 0.0 **** -0.24
1762 H 151.62381622016267 56.92118837105809 276.24566563556607 H 0.0 **** 0.06
1763 H 150.5333470386085 56.138342468839255 277.4143809653779 H 0.0 **** 0.06
1764 H 151.94501755932635 55.2564084097979 276.78430246232546 H 0.0 **** 0.06
1765 H 150.55996873965 55.59539808212253 275.71927803423495 H 0.0 **** 0.06
1766 C 219.05222940749616 255.65650829699814 225.83980426455565 C 0.0 **** -0.24
1767 H 218.37445480078674 255.88113665849176 226.66338245253843 H 0.0 **** 0.06
1768 H 218.48337504590813 255.5698588753779 224.91385343178206 H 0.0 **** 0.06
1769 H 219.5667888464456 254.7165274027551 226.04027085548324 H 0.0 **** 0.06
1770 H 219.78451858467844 256.45799344707456 225.74300826955715 H 0.0 **** 0.06
1771 C 213.50296138798655 179.14378147184368 185.32201155956466 C 0.0 **** -0.24
1772 H 213.3257864446516 178.23289576450452 185.89514908604565 H 0.0 **** 0.06
1773 H 212.7868376057463 179.2008109597022 184.50184955185648 H 0.0 **** 0.06
1774 H 214.5161768353704 179.1292765557638 184.92057611778012 H 0.0 **** 0.06
1775 H 213.38212595388862 180.0101975892403 185.97164319034238 H 0.0 **** 0.06
1776 C 128.84289358036733 138.6898126338303 180.37622911829885 C 0.0 **** -0.24
1777 H 127.96744359207844 139.26536884537748 180.076291269379 H 0.0 **** 0.06
1778 H 128.6629971801293 137.63066213250914 180.18953189068696 H 0.0 **** 0.06
1779 H 129.0330561049579 138.84462546749108 181.4379006998118 H 0.0 **** 0.06
1780 H 129.70837231543578 139.0180526871195 179.79991984350215 H 0.0 **** 0.06
1781 C 63.93279613982085 189.21990907544404 73.39466904416776 C 0.0 **** -0.24
1782 H 64.55842146059629 189.31884708346058 74.2817223561629 H 0.0 **** 0.06
1783 H 63.80124545409183 188.16258449709284 73.15868913875099 H 0.0 **** 0.06
1784 H 64.41190577770371 189.72218777505765 72.55459737445298 H 0.0 **** 0.06
1785 H 62.96036143918377 189.67391424997635 73.58379704793884 H 0.0 **** 0.06
1786 C 3.063736427491989 113.92285256201862 125.6482371933071 C 0.0 **** -0.24
1787 H 3.252657530944944 113.7999968889381 124.58091828194921 H 0.0 **** 0.06
1788 H 2.0251365182759145 114.21445161606076 125.80163721405935 H 0.0 **** 0.06
1789 H 3.721241121898359 114.69608501619894 126.04560792522582 H 0.0 **** 0.06
1790 H 3.257539743845527 112.98112201933992 126.16173812756497 H 0.0 **** 0.06
1791 C 292.6635608141555 17.14909854676239 106.87934070354359 C 0.0 **** -0.24
1792 H 291.76045429553943 17.02592518960229 106.28042393450292 H 0.0 **** 0.06
1793 H 293.46064927536395 16.531847167202926 106.46426953883514 H 0.0 **** 0.06
1794 H 292.461812327199 16.842662352411736 107.90538298017674 H 0.0 **** 0.06
1795 H 292.96828872454495 18.195398513650645 106.86517636402564 H 0.0 **** 0.06
1796 C 136.19460945764743 19.80974480879189 70.79850085550535 C 0.0 **** -0.24
1797 H 136.44563614348553 20.729526694074877 70.27079048637086 H 0.0 **** 0.06
1798 H 135.73347156078557 20.054128031441167 71.75555259469368 H 0.0 **** 0.06
1799 H 137.10284906895467 19.230527032921657 70.96955328455698 H 0.0 **** 0.06
1800 H 135.4983387058378 19.22474503146725 70.19884625167444 H 0.0 **** 0.06
1801 C 34.37590023068617 259.31336033160795 129.04883345386028 C 0.0 **** -0.24
1802 H 34.70993584970313 258.5736431492676 128.32172064115431 H 0.0 **** 0.06
1803 H 33.87906294314041 258.8080716319912 129.87800074506228 H 0.0 **** 0.06
1804 H 33.6775845238941 260.00089818679777 128.5723639186325 H 0.0 **** 0.06
1805 H 35.23527849039573 259.86945688074957 129.42355599803517 H 0.0 **** 0.06
1806 C 115.14759479610609 188.20580116724693 139.5838868201987 C 0.0 **** -0.24
1807 H 114.63909277354645 188.89632316444465 138.91155103254948 H 0.0 **** 0.06
1808 H 114.45557067432901 187.8825424992753 140.36276730343317 H 0.0 **** 0.06
1809 H 116.001495958976 188.7054574648801 140.04149444546655 H 0.0 **** 0.06
1810 H 115.4920807810528 187.33925242700747 139.02086903185716 H 0.0 **** 0.06
1811 C 245.6364469641975 206.02291075969242 30.70781475836003 C 0.0 **** -0.24
1812 H 245.9659360218094 205.76285299217722 31.714473724918435 H 0.0 **** 0.06
1813 H 245.90298307394426 205.21913044058505 30.02069245782954 H 0.0 **** 0.06
1814 H 246.12272926654776 206.94666575030863 30.393721474077694 H 0.0 **** 0.06
1815 H 244.55554828131136 206.16126380796163 30.704376942629693 H 0.0 **** 0.06
1816 C 119.42558985131762 271.56117689000325 114.02348615662532 C 0.0 **** -0.24
1817 H 120.02971898329449 272.28753180795286 114.56591298957153 H 0.0 **** 0.06
1818 H 119.26916016157554 271.9096997394825 113.00228053157369 H 0.0 **** 0.06
1819 H 118.46234997913922 271.4456746955516 114.52009519829417 H 0.0 **** 0.06
1820 H 119.94202004035643 270.6013137802628 114.00467069355065 H 0.0 **** 0.06
1821 C 170.2068840192739 297.95919504553024 183.45710092723755 C 0.0 **** -0.24
1822 H 171.05232194498114 297.60530308969317 182.8664237303508 H 0.0 **** 0.06
1823 H 170.2276036021741 297.4878020070271 184.43981892000323 H 0.0 **** 0.06
1824 H 169.27717929946402 297.70125560904506 182.94904312040796 H 0.0 **** 0.06
1825 H 170.27111541185434 299.04060479861874 183.57062016206083 H 0.0 **** 0.06
1826 C 185.6619692415287 199.3388914434617 60.98065178051459 C 0.0 **** -0.24
1827 H 185.8836920961694 198.4852921309128 61.62251745716432 H 0.0 **** 0.06
1828 H 184.7016568397824 199.18394355353865 60.48979988015378 H 0.0 **** 0.06
1829 H 186.44412039986645 199.4387330015182 60.22800539661259 H 0.0 **** 0.06
1830 H 185.62095617340265 200.24587074257863 61.58441152775353 H 0.0 **** 0.06
1831 C 12.389060318488191 176.7619274129417 306.05925575341485 C 0.0 **** -0.24
1832 H 12.444860902920794 175.99645712789817 305.2867495222584 H 0.0 **** 0.06
1833 H 13.27477358505233 177.3967398221036 306.00585561706873 H 0.0 **** 0.06
1834 H 12.341656349469574 176.28712909336934 307.0387774556119 H 0.0 **** 0.06
1835 H 11.497342329650806 177.3689065619061 305.90661995959994 H 0.0 **** 0.06
1836 C 114.60770970070337 24.32095906858885 246.1366253339618 C 0.0 **** -0.24
1837 H 115.10773640668694 23.374433509231807 246.3394996896444 H 0.0 **** 0.06
1838 H 113.8422374724019 24.497124904725922 246.89289262765547 H 0.0 **** 0.06
1839 H 114.14308411475378 24.282308340009223 245.15065802096086 H 0.0 **** 0.06
1840 H 115.33796771339132 25.13007550980197 246.16247435154787 H 0.0 **** 0.06
1841 C 202.2178739220235 145.9484055056857 225.41832519383138 C 0.0 **** -0.24
1842 H 202.86550815042466 145.0794520833687 225.53561205041024 H 0.0 **** 0.06
1843 H 201.8919672428271 146.0219849977311 224.38116453063847 H 0.0 **** 0.06
1844 H 202.7661224549371 146.85039467756755 225.6926123348438 H 0.0 **** 0.06
1845 H 201.34736089675596 145.84207300520112 226.06717250339432 H 0.0 **** 0.06
1846 C 131.29842733285162 144.733263240253 258.1398929686365 C 0.0 **** -0.24
1847 H 130.4440566754573 145.2612992082952 258.5644069850662 H 0.0 **** 0.06
1848 H 131.40429319653597 143.76498197645108 258.62883382583004 H 0.0 **** 0.06
1849 H 132.20290892827643 145.32121141795574 258.2969195118644 H 0.0 **** 0.06
1850 H 131.14054207491165 144.58739641438947 257.07164465432334 H 0.0 **** 0.06
1851 C 189.9013432999813 125.31649151160926 94.07589022654545 C 0.0 **** -0.24
1852 H 189.286728823742 124.48746429721444 93.72361011357299 H 0.0 **** 0.06
1853 H 190.07277211398997 126.01381142130708 93.25692536325744 H 0.0 **** 0.06
1854 H 190.8563597784359 124.9332096669234 94.43460167221247 H 0.0 **** 0.06
1855 H 189.38713586497744 125.82932559615645 94.88926484468578 H 0.0 **** 0.06
1856 C 99.41046063477492 20.533156699228954 6.820724282238189 C 0.0 **** -0.24
1857 H 98.36769490164784 20.2684019707155 6.994853280450457 H 0.0 **** 0.06
1858 H 100.00888970132101 19.62497586944484 6.749221958458406 H 0.0 **** 0.06
1859 H 99.77375657116292 21.143866423756975 7.6479389158182585 H 0.0 **** 0.06
1860 H 99.49146606614019 21.096768902328392 5.891159999639058 H 0.0 **** 0.06
1861 C 162.81173211924107 287.8298037378668 308.9430158197097 C 0.0 **** -0.24
1862 H 162.58149552539652 286.8035851118514 309.23035672368746 H 0.0 **** 0.06
1863 H 163.75692502804912 288.12962229104403 309.3946800163801 H 0.0 **** 0.06
1864 H 162.01727787445878 288.49029282955024 309.2888697741104 H 0.0 **** 0.06
1865 H 162.89088889067324 287.89268963670725 307.8573008832578 H 0.0 **** 0.06
1866 C 6.32891396827371 233.7309390895266 104.12831234883524 C 0.0 **** -0.24
1867 H 6.378927880966373 233.71271084898203 105.21730027004637 H 0.0 **** 0.06
1868 H 7.180733214856133 233.1908336800131 103.71636033365894 H 0.0 **** 0.06
1869 H 6.349639892008241 234.76370935938007 103.78209659188431 H 0.0 **** 0.06
1870 H 5.403723821758177 233.2565792284489 103.80066579227051 H 0.0 **** 0.06
1871 C 210.80499796686397 285.8636935776818 268.4706652976452 C 0.0 **** -0.24
1872 H 210.64645158496182 284.9575106305414 267.8863795292051 H 0.0 **** 0.06
1873 H 210.23954283248653 285.8001912182418 269.4003035556946 H 0.0 **** 0.06
1874 H 210.46957871688937 286.7281346577894 267.89781636913915 H 0.0 **** 0.06
1875 H 211.8665085501708 285.96824080280265 268.6970908113255 H 0.0 **** 0.06
1876 C 8.999875503678766 222.30108251401256 200.978950559191 C 0.0 **** -0.24
1877 H 9.09098407498118 221.27700692459217 200.61752731238727 H 0.0 **** 0.06
1878 H 8.010963681353815 222.68789364587866 200.729731954403 H 0.0 **** 0.06
1879 H 9.762124541568198 222.92144234540586 200.50887245067918 H 0.0 **** 0.06
1880 H 9.134327531459292 222.31756912533763 202.06093956009522 H 0.0 **** 0.06
1881 C 177.72065173580313 254.83926809229354 165.00107047590308 C 0.0 **** -0.24
1882 H 176.73734878211394 254.56015831954824 165.37928653156212 H 0.0 **** 0.06
1883 H 178.0434910988933 254.11017804122127 164.25802418382847 H 0.0 **** 0.06
1884 H 178.43394443484408 254.86075013017603 165.8243562056067 H 0.0 **** 0.06
1885 H 177.6663054300285 255.8275993507479 164.54292294559582 H 0.0 **** 0.06
1886 C 253.92817256793398 68.86041994311267 280.96313782581313 C 0.0 **** -0.24
1887 H 253.90920784385798 69.89126237059494 280.6082877412135 H 0.0 **** 0.06
1888 H 254.92622290822518 68.44571112788387 280.82063706065117 H 0.0 **** 0.06
1889 H 253.20427170433635 68.27026136220874 280.4012127962004 H 0.0 **** 0.06
1890 H 253.67236352683466 68.83659091529177 282.022343311569 H 0.0 **** 0.06
1891 C 194.62628212169216 30.80706765872509 66.93261467808054 C 0.0 **** -0.24
1892 H 194.90174079146908 29.83883574254051 66.51541469661714 H 0.0 **** 0.06
1893 H 194.13308041883982 31.405324433156665 66.16533945363219 H 0.0 **** 0.06
1894 H 195.52222646305086 31.323109965490886 67.27605378424138 H 0.0 **** 0.06
1895 H 193.94630447703958 30.660271572035867 67.7721298145475 H 0.0 **** 0.06
1896 C 151.6029588710441 127.64362096652326 80.59054471847966 C 0.0 **** -0.24
1897 H 152.4594396806836 127.0872307696356 80.96974508260652 H 0.0 **** 0.06
1898 H 151.01828563500095 127.00448502422748 79.92864305974712 H 0.0 **** 0.06
1899 H 151.95284204887184 128.51478800727983 80.0368949213111 H 0.0 **** 0.06
1900 H 150.9815631656653 127.96826194352997 81.42448054229465 H 0.0 **** 0.06
1901 C 160.54150701488607 21.479099565782036 276.27877535990115 C 0.0 **** -0.24
1902 H 159.86882124877167 21.558425543178885 277.1325350436095 H 0.0 **** 0.06
1903 H 161.00093562044975 22.449188938637263 276.08728823705854 H 0.0 **** 0.06
1904 H 159.97861874346728 21.163195068716618 275.40057123125075 H 0.0 **** 0.06
1905 H 161.31848902928016 20.745364751063335 276.4958249527683 H 0.0 **** 0.06
1906 C 182.77645802392152 96.2150308228683 147.08206927982556 C 0.0 **** -0.24
1907 H 182.21073431642145 95.95292819137956 147.97637753160348 H 0.0 **** 0.06
1908 H 183.7782568291322 95.79033087200236 147.14929618887945 H 0.0 **** 0.06
1909 H 182.84672899175553 97.3007661862801 147.0021251063076 H 0.0 **** 0.06
1910 H 182.27089738198794 95.81772981575142 146.20178995026956 H 0.0 **** 0.06
1911 C 294.3630650960744 179.6932230124359 230.76440371290374 C 0.0 **** -0.24
1912 H 293.8299832761908 179.03217585392986 230.08005381427762 H 0.0 **** 0.06
1913 H 294.1190182490777 179.42394050438503 231.79203322650955 H 0.0 **** 0.06
1914 H 294.06573556206934 180.72489811321134 230.5780573101965 H 0.0 **** 0.06
1915 H 295.4363020006922 179.5900462204723 230.60639598155126 H 0.0 **** 0.06
1916 C 207.28156107737692 300.9391476931029 230.0995428702142 C 0.0 **** -0.24
1917 H 207.3684448549198 299.8577107875029 230.20287135939554 H 0.0 **** 0.06
1918 H 206.69548274477137 301.17266072755785 229.20944500448078 H 0.0 **** 0.06
1919 H 208.27596163352047 301.37689419513094 230.00537870859515 H 0.0 **** 0.06
1920 H 206.7863495300029 301.3497455899867 230.9795691431878 H 0.0 **** 0.06
1921 C 119.70396136057352 21.393305471258486 249.5823955291837 C 0.0 **** -0.24
1922 H 119.47823977569035 20.399096186126854 249.19671818524395 H 0.0 **** 0.06
1923 H 119.0001449719037 22.113734420182936 249.1647282288477 H 0.0 **** 0.06
1924 H 120.71999166931607 21.670394894799387 249.300473172579 H 0.0 **** 0.06
1925 H 119.61695047275254 21.38857138497883 250.66930585099672 H 0.0 **** 0.06
1926 C 264.90437679747214 205.15691811938365 218.59832189657163 C 0.0 **** -0.24
1927 H 264.72294887520843 206.08385445392167 219.143952081311 H 0.0 **** 0.06
1928 H 265.768761935468 204.6491013899817 219.02526785214425 H 0.0 **** 0.06
1929 H 265.0968625775026 205.38564834221103 217.5498739665893 H 0.0 **** 0.06
1930 H 264.0289494950916 204.51295924805453 218.6755576095309 H 0.0 **** 0.06
1931 C 263.17789295985864 202.8607546113758 272.4869958972078 C 0.0 **** -0.24
1932 H 264.0176687647548 202.18826465917624 272.3136372832961 H 0.0 **** 0.06
1933 H 262.2984498174385 202.48610358141013 271.96242872441366 H 0.0 **** 0.06
1934 H 263.4258556954246 203.85523711595835 272.11640801491404 H 0.0 **** 0.06
1935 H 262.96959756181667 202.91341308895852 273.5555095662074 H 0.0 **** 0.06
1936 C 301.5085904859831 257.4169625392437 168.88585507965684 C 0.0 **** -0.24
1937 H 300.46361160046524 257.6367222715103 169.10325364518218 H 0.0 **** 0.06
1938 H 301.80209287704025 257.923480739851 167.96564531276232 H 0.0 **** 0.06
1939 H 301.6366818197564 256.34147503574087 168.76541178327585 H 0.0 **** 0.06
1940 H 302.1319250119847 257.76801859803817 169.70834280782321 H 0.0 **** 0.06
1941 C 111.24116527430803 88.33369215437554 244.51265180237579 C 0.0 **** -0.24
1942 H 110.57711337849705 87.90843236440514 243.7605590303543 H 0.0 **** 0.06
1943 H 112.0074712690101 87.60429664298965 244.77583930631874 H 0.0 **** 0.06
1944 H 110.66443825975526 88.59265542101679 245.40107249723346 H 0.0 **** 0.06
1945 H 111.71472407028489 89.23129522366 244.11385216508475 H 0.0 **** 0.06
1946 C 283.5874626433095 84.65177602406575 145.03076708319682 C 0.0 **** -0.24
1947 H 283.5842355189929 84.83775074312973 146.1051475293271 H 0.0 **** 0.06
1948 H 283.53180904354076 83.57805535104822 144.84816930508688 H 0.0 **** 0.06
1949 H 284.5064169620952 85.0470214415459 144.59772508705456 H 0.0 **** 0.06
1950 H 282.72951934878756 85.14402835180019 144.57455628544685 H 0.0 **** 0.06
1951 C 181.8514177364251 127.15773379480743 202.34084611033506 C 0.0 **** -0.24
1952 H 181.69359647586668 127.69553465110155 201.40601936791813 H 0.0 **** 0.06
1953 H 181.060994134 126.41815939951965 202.47219525008393 H 0.0 **** 0.06
1954 H 181.83416565144745 127.86053873356471 203.1727228591556 H 0.0 **** 0.06
1955 H 182.817768273794 126.6542423463209 202.3109571366989 H 0.0 **** 0.06
1956 C 218.9654224832135 104.81087352216664 87.15252893536075 C 0.0 **** -0.24
1957 H 219.69123793920093 104.35363362046186 87.82538177837586 H 0.0 **** 0.06
1958 H 218.114132519218 104.1423874485771 87.02768458310842 H 0.0 **** 0.06
1959 H 219.43259190800313 104.99018972736877 86.18344029984661 H 0.0 **** 0.06
1960 H 218.626321782977 105.75773295352076 87.57257569669295 H 0.0 **** 0.06
1961 C 130.25718328025368 29.0798721448283 243.50796236288704 C 0.0 **** -0.24
1962 H 129.2663474748842 28.759690623245717 243.185096211315 H 0.0 **** 0.06
1963 H 130.25078920019268 30.155799917367176 243.6873527243776 H 0.0 **** 0.06
1964 H 130.98501014790577 28.845234828734647 242.73131976173678 H 0.0 **** 0.06
1965 H 130.52532877487573 28.558845089585873 244.42743892840633 H 0.0 **** 0.06
1966 C 113.33412253983028 56.85750652716325 16.97771478042985 C 0.0 **** -0.24
1967 H 114.3889620177545 56.86190359269483 16.702370099256896 H 0.0 **** 0.06
1968 H 113.19718857448055 57.41716581536818 17.902680140659413 H 0.0 **** 0.06
1969 H 113.00075685888424 55.829365895321445 17.12134457248129 H 0.0 **** 0.06
1970 H 112.74921548357389 57.32084310539841 16.182646038443025 H 0.0 **** 0.06
1971 C 268.7613133590766 19.713321956552747 4.170686745028888 C 0.0 **** -0.24
1972 H 268.87302685197636 19.66853756708535 3.0874024779036517 H 0.0 **** 0.06
1973 H 267.8425489972259 19.204950861276615 4.461781614844767 H 0.0 **** 0.06
1974 H 268.71804554320624 20.755318841529146 4.488110340613503 H 0.0 **** 0.06
1975 H 269.61377125378334 19.224629795524294 4.643354559801139 H 0.0 **** 0.06
1976 C 297.5948847226008 307.9136457751482 222.07402404891369 C 0.0 **** -0.24
1977 H 297.1359476120313 308.9018463741963 222.0875388970349 H 0.0 **** 0.06
1978 H 298.66929644309687 308.00926753213264 222.23156542566147 H 0.0 **** 0.06
1979 H 297.4102427826792 307.4409562382433 221.10829100351947 H 0.0 **** 0.06
1980 H 297.16323075351363 307.30200192165466 222.866042985371 H 0.0 **** 0.06
1981 C 219.62364863912964 295.4079939061989 171.14811317663515 C 0.0 **** -0.24
1982 H 220.31737200847653 296.1220181113507 171.59112973142288 H 0.0 **** 0.06
1983 H 218.6219561341077 295.8399532868216 171.12785042496927 H 0.0 **** 0.06
1984 H 219.61361996885117 294.4948644487954 171.74189206008168 H 0.0 **** 0.06
1985 H 219.9408157000891 295.1770428423655 170.13075089339657 H 0.0 **** 0.06
1986 C 296.50851825258013 85.24125490833418 127.11401631339027 C 0.0 **** -0.24
1987 H 296.682067419333 85.80026106531182 128.03320679990105 H 0.0 **** 0.06
1988 H 297.1853073525545 85.5989395366388 126.3378606768656 H 0.0 **** 0.06
1989 H 295.476871716672 85.38619166701957 126.79112141184169 H 0.0 **** 0.06
1990 H 296.68738982896616 84.18104684716275 127.29365811546475 H 0.0 **** 0.06
1991 C 218.77810385416427 259.440438088421 265.9476187685011 C 0.0 **** -0.24
1992 H 218.35624853023694 258.8986416437932 266.79358155961734 H 0.0 **** 0.06
1993 H 219.6744552602463 259.9733589401977 266.2679371746024 H 0.0 **** 0.06
1994 H 218.04534176380122 260.15454566688703 265.5718948871106 H 0.0 **** 0.06
1995 H 219.03760880036535 258.7353903034998 265.1577180436889 H 0.0 **** 0.06
1996 C 72.16477319068389 197.6675851036644 91.25742262067612 C 0.0 **** -0.24
1997 H 71.36205987878833 197.2586536864739 91.87065160133852 H 0.0 **** 0.06
1998 H 72.56027057379521 198.56656979808088 91.73080586046612 H 0.0 **** 0.06
1999 H 71.77654499799371 197.9174134548805 90.26980122702275 H 0.0 **** 0.06
2000 H 72.95932288540965 196.92873473302615 91.15949787156745 H 0.0 **** 0.06
2001 C 276.3718675459004 128.0048228982447 72.58632935242409 C 0.0 **** -0.24
2002 H 276.91763309902115 127.0989636784677 72.8485074994004 H 0.0 **** 0.06
2003 H 275.49026316588385 127.74135057906318 72.00137857903019 H 0.0 **** 0.06
2004 H 277.0155916015921 128.66013609517512 71.99880632476251 H 0.0 **** 0.06
2005 H 276.06339458485365 128.5195120387711 73.49617267401624 H 0.0 **** 0.06
2006 C 7.512532487187414 189.50589077472762 94.88329544160638 C 0.0 **** -0.24
2007 H 8.065726859503584 190.00669478868627 94.08794791891361 H 0.0 **** 0.06
2008 H 7.974226628628969 189.73209676813286 95.84507281909498 H 0.0 **** 0.06
2009 H 7.531409610721255 188.42933031825316 94.71566016869954 H 0.0 **** 0.06
2010 H 6.4807439550124855 189.85626123527766 94.88385382099227 H 0.0 **** 0.06
2011 C 305.4831834883677 93.71403776361504 167.8724794474993 C 0.0 **** -0.24
2012 H 304.9061802453589 92.98331097752984 168.43846263424064 H 0.0 **** 0.06
2013 H 306.5300942273344 93.66037468135409 168.17183296766325 H 0.0 **** 0.06
2014 H 305.0974691757441 94.71407537077036 168.07225583804865 H 0.0 **** 0.06
2015 H 305.39733278191187 93.4979315575585 166.80757235585588 H 0.0 **** 0.06
2016 C 83.40705669358567 84.36222105668804 81.0601662318916 C 0.0 **** -0.24
2017 H 82.87616389726273 84.3678485496718 82.0114766515384 H 0.0 **** 0.06
2018 H 84.41442753333044 83.97234873357715 81.20777014447881 H 0.0 **** 0.06
2019 H 83.4641831749982 85.3783337282567 80.67052800054552 H 0.0 **** 0.06
2020 H 82.87291795823498 83.73025798263322 80.35005015816091 H 0.0 **** 0.06
2021 C 249.3853347419259 113.01953457099555 159.262223495297 C 0.0 **** -0.24
2022 H 249.86643280987292 112.67245012097757 160.17744007622616 H 0.0 **** 0.06
2023 H 249.0079079657627 114.0303887450784 159.41164307421963 H 0.0 **** 0.06
2024 H 248.5580194260561 112.35504527122399 159.01289903036417 H 0.0 **** 0.06
2025 H 250.111107258503 113.01777630473126 158.44843819397778 H 0.0 **** 0.06
2026 C 166.9511133267216 139.64371357982583 307.12323366670427 C 0.0 **** -0.24
2027 H 167.48211408294395 140.41695894437817 307.6785256201461 H 0.0 **** 0.06
2028 H 167.66177594815025 138.89379802756406 306.7747675187679 H 0.0 **** 0.06
2029 H 166.4467735420564 140.0930284854697 306.2674808699511 H 0.0 **** 0.06
2030 H 166.21378016828862 139.17242750981958 307.7732349008566 H 0.0 **** 0.06
2031 C 51.051862789119866 125.29543143105474 153.40864578407712 C 0.0 **** -0.24
2032 H 50.18402632857806 124.64217929587542 153.31538337089125 H 0.0 **** 0.06
2033 H 51.31671756877472 125.68867245116948 152.42598419119435 H 0.0 **** 0.06
2034 H 51.891263718287405 124.72889617527616 153.81212469943057 H 0.0 **** 0.06
2035 H 50.81479614677812 126.12112065070909 154.07828976549519 H 0.0 **** 0.06
2036 C 103.40461334847322 177.8390116347352 242.61005564416067 C 0.0 **** -0.24
2037 H 103.55089652395338 177.08667754554693 241.83438883096764 H 0.0 **** 0.06
2038 H 102.51127010463884 178.42274021848118 242.38513533615392 H 0.0 **** 0.06
2039 H 104.27136802981855 178.4994557839736 242.64289159947728 H 0.0 **** 0.06
2040 H 103.28514925635506 177.34805846699084 243.57553462622488 H 0.0 **** 0.06
2041 C 182.93545742369247 153.62487975823257 119.16866541146243 C 0.0 **** -0.24
2042 H 183.7651213939323 153.3581568847472 118.51414501133186 H 0.0 **** 0.06
2043 H 182.76011621660246 152.81759400693034 119.88045999650967 H 0.0 **** 0.06
2044 H 182.0378779610008 153.78443726294176 118.57122766533115 H 0.0 **** 0.06
2045 H 183.17961054153227 154.53942616225282 119.70926182335424 H 0.0 **** 0.06
2046 C 70.26429526663432 6.357461729328691 260.0885518526548 C 0.0 **** -0.24
2047 H 70.7052666350759 6.981173589099271 259.3112751220007 H 0.0 **** 0.06
2048 H 70.94108026130942 5.534435319853756 260.32258595187204 H 0.0 **** 0.06
2049 H 69.31310773847972 5.95732138043833 259.7374388542765 H 0.0 **** 0.06
2050 H 70.0977958490682 6.957071616244008 260.9843114656792 H 0.0 **** 0.06
2051 C 291.34044242197626 288.28579358863385 300.6928353025062 C 0.0 **** -0.24
2052 H 290.7121323320184 288.5902475580024 301.5294813198647 H 0.0 **** 0.06
2053 H 290.75187799467056 287.69437630651163 299.9913876111213 H 0.0 **** 0.06
2054 H 292.1735826455893 287.688578505359 301.0628378162714 H 0.0 **** 0.06
2055 H 291.725992989953 289.17157234789755 300.18726028085297 H 0.0 **** 0.06
2056 C 51.11458383698812 93.15399217971853 50.76764726995461 C 0.0 **** -0.24
2057 H 52.016020581636326 93.18869310942543 50.156286502200516 H 0.0 **** 0.06
2058 H 51.298247463189114 93.66082433105018 51.714357461716105 H 0.0 **** 0.06
2059 H 50.84371115833096 92.11476243408407 50.957046010235416 H 0.0 **** 0.06
2060 H 50.2991425973089 93.65140319138723 50.24104283860132 H 0.0 **** 0.06
2061 C 281.14263953992054 211.46635182535204 87.15432203325204 C 0.0 **** -0.24
2062 H 281.4188807176664 210.63768307823705 86.5025741772944 H 0.0 **** 0.06
2063 H 280.8189238932655 212.31309216085646 86.54801077654537 H 0.0 **** 0.06
2064 H 282.00439164083315 211.75867021648608 87.75582318261064 H 0.0 **** 0.06
2065 H 280.3302561633611 211.1570644767799 87.81132274232334 H 0.0 **** 0.06
2066 C 288.5991233316373 251.00144822472674 66.51013309654272 C 0.0 **** -0.24
2067 H 289.6138495883872 250.78974659447766 66.1724462661345 H 0.0 **** 0.06
2068 H 288.4953823400869 252.06869560271008 66.70127488357434 H 0.0 **** 0.06
2069 H 288.3978788687596 250.44588580435789 67.42568615887828 H 0.0 **** 0.06
2070 H 287.8901276965504 250.69972864340414 65.73858929505803 H 0.0 **** 0.06
2071 C 184.34562171688185 74.61451946361154 134.96692945596075 C 0.0 **** -0.24
2072 H 183.5050409061986 74.78495991699103 135.63962872214137 H 0.0 **** 0.06
2073 H 184.51513006618933 75.50709456742149 134.36433593168758 H 0.0 **** 0.06
2074 H 184.1224062652397 73.77053099236022 134.31351023603463 H 0.0 **** 0.06
2075 H 185.239824582829 74.39450702815483 135.5503907778996 H 0.0 **** 0.06
2076 C 241.65576064930093 49.65974562185161 101.08541187306471 C 0.0 **** -0.24
2077 H 241.52147525547247 50.34672226477022 101.92108697501524 H 0.0 **** 0.06
2078 H 241.69268479705647 50.224264573077534 100.15362900582065 H 0.0 **** 0.06
2079 H 240.82105233965717 48.95951101770041 101.05358599054557 H 0.0 **** 0.06
2080 H 242.58761851368484 49.1094911696847 101.21431612758943 H 0.0 **** 0.06
2081 C 248.40776531685952 219.91783149794526 101.89268232454123 C 0.0 **** -0.24
2082 H 248.00391110648516 219.1180448876508 101.27128992981523 H 0.0 **** 0.06
2083 H 248.81143473930774 219.4955772144378 102.81251256101262 H 0.0 **** 0.06
2084 H 247.61405403009678 220.62486071719965 102.13448271200176 H 0.0 **** 0.06
2085 H 249.2000952461133 220.43301836098934 101.34970246397853 H 0.0 **** 0.06
2086 C 5.593440834167438 63.00564085135349 36.74673128536028 C 0.0 **** -0.24
2087 H 6.1101768803102345 63.92828081994628 37.00960519748352 H 0.0 **** 0.06
2088 H 4.517284770902933 63.15264727545568 36.836020628955964 H 0.0 **** 0.06
2089 H 5.908212330419971 62.20814927764383 37.420830277473755 H 0.0 **** 0.06
2090 H 5.839558512567564 62.73152851237296 35.72056762066799 H 0.0 **** 0.06
2091 C 44.170107035526996 282.14905541092855 311.1211003928384 C 0.0 **** -0.24
2092 H 44.93133217694822 282.5804988229891 311.77111440522765 H 0.0 **** 0.06
2093 H 43.29436777356261 282.7983710387805 311.10789762293894 H 0.0 **** 0.06
2094 H 43.88806261508972 281.1649992711067 311.4968646980576 H 0.0 **** 0.06
2095 H 44.56778620558538 282.0521554002453 310.11069403043774 H 0.0 **** 0.06
2096 C 283.6475626476472 223.45320522959491 169.40078230005685 C 0.0 **** -0.24
2097 H 282.55968196983156 223.41063537019954 169.34981381066586 H 0.0 **** 0.06
2098 H 284.06129059913496 222.47572502121875 169.15226273206798 H 0.0 **** 0.06
2099 H 283.9532736635688 223.73223719118943 170.408528936643 H 0.0 **** 0.06
2100 H 284.01481791188866 224.19493413503528 168.69076669711131 H 0.0 **** 0.06
2101 C 19.519259484384804 274.15025458844383 263.93926422551067 C 0.0 **** -0.24
2102 H 20.53617723592636 274.51404523022086 264.08410207459934 H 0.0 **** 0.06
2103 H 19.42970812380365 273.70824118455073 262.9468504734196 H 0.0 **** 0.06
2104 H 18.81950386354039 274.981807739038 264.0318427651989 H 0.0 **** 0.06
2105 H 19.29194758710925 273.39819509300565 264.6948052016577 H 0.0 **** 0.06
2106 C 49.47508233237039 179.37294066275507 309.31188503387045 C 0.0 **** -0.24
2107 H 49.07710089463785 178.43437312218686 308.9280933062855 H 0.0 **** 0.06
2108 H 48.664744517053805 179.9658006161133 309.73640717914105 H 0.0 **** 0.06
2109 H 49.94311885619075 179.92854688105496 308.49881376034926 H 0.0 **** 0.06
2110 H 50.21661206124395 179.1654933043451 310.08302743459177 H 0.0 **** 0.06
2111 C 224.8926570396947 137.02717918021648 262.85376009658694 C 0.0 **** -0.24
2112 H 224.34178243866396 136.21875190214269 262.37300562689734 H 0.0 **** 0.06
2113 H 225.35512592784636 136.65615005570965 263.7689247104905 H 0.0 **** 0.06
2114 H 224.2080011880806 137.8397761349024 263.0953028483116 H 0.0 **** 0.06
2115 H 225.66564098984563 137.3912144027455 262.1776739222886 H 0.0 **** 0.06
2116 C 40.765194690050436 149.23446497845453 227.26925420261782 C 0.0 **** -0.24
2117 H 40.678166758185796 148.7318392558199 226.30589659887366 H 0.0 **** 0.06
2118 H 41.79289766952991 149.57039542965475 227.41117204027023 H 0.0 **** 0.06
2119 H 40.49627719038162 148.541700255561 228.0659214868058 H 0.0 **** 0.06
2120 H 40.09586360239183 150.09354184205233 227.29262470829477 H 0.0 **** 0.06
2121 C 214.0999973140176 146.81647232713345 240.86111992795304 C 0.0 **** -0.24
2122 H 214.4124410054436 146.62338708114873 239.83427213840872 H 0.0 **** 0.06
2123 H 214.82654739094716 147.46949515005286 241.3446284887508 H 0.0 **** 0.06
2124 H 214.03858978760871 145.87396206813327 241.4047722757851 H 0.0 **** 0.06
2125 H 213.12288638246 147.298760556675 240.8578583843183 H 0.0 **** 0.06
2126 C 164.74908706100854 99.62335685887285 89.31920978616378 C 0.0 **** -0.24
2127 H 164.21183246091954 100.53764961186752 89.06716691990499 H 0.0 **** 0.06
2128 H 165.31769816249698 99.28522392412913 88.4524578682026 H 0.0 **** 0.06
2129 H 164.03722205737074 98.85107088973501 89.61028356977258 H 0.0 **** 0.06
2130 H 165.43131327979154 99.8193834475849 90.14712966048941 H 0.0 **** 0.06
2131 C 246.36002275480598 99.73717025098452 229.94880668814733 C 0.0 **** -0.24
2132 H 247.2626908521356 99.12774197284278 229.90184041058473 H 0.0 **** 0.06
2133 H 246.33296692250835 100.41219842714062 229.0934288224572 H 0.0 **** 0.06
2134 H 246.3614903659393 100.31799168578885 230.87111827136295 H 0.0 **** 0.06
2135 H 245.4827965912971 99.08934318418335 229.92878903872665 H 0.0 **** 0.06
2136 C 40.293649891398815 306.7570568953686 15.209188981825932 C 0.0 **** -0.24
2137 H 40.07425313069638 307.4635866974705 14.40813277021229 H 0.0 **** 0.06
2138 H 40.436732299768494 307.3000463146818 16.14388265824755 H 0.0 **** 0.06
2139 H 41.200136990528534 306.2027957714209 14.966557380121358 H 0.0 **** 0.06
2140 H 39.46086504818362 306.0613377367018 15.317201074479257 H 0.0 **** 0.06
2141 C 59.223300074564435 256.53560020495877 187.93108062311353 C 0.0 **** -0.24
2142 H 60.1330779970848 255.98801657583806 187.68280526060954 H 0.0 **** 0.06
2143 H 59.48566757785915 257.4567198527896 188.45171988278463 H 0.0 **** 0.06
2144 H 58.59394281129295 255.92111997015732 188.57513871667356 H 0.0 **** 0.06
2145 H 58.68283575619037 256.7754700230799 187.01586090244786 H 0.0 **** 0.06
2146 C 197.1945952703985 274.0249997267385 155.77158228869797 C 0.0 **** -0.24
2147 H 198.11218354026812 274.49465514610785 156.1264384646895 H 0.0 **** 0.06
2148 H 196.5097345838687 274.7918372457894 155.41046401643524 H 0.0 **** 0.06
2149 H 196.72804582075617 273.47685946018396 156.5896899870586 H 0.0 **** 0.06
2150 H 197.4296227935949 273.3357540664206 154.960602120943 H 0.0 **** 0.06
2151 C 303.91929418080684 297.5002572194696 158.08848095546426 C 0.0 **** -0.24
2152 H 304.26621478077936 297.0222306217574 159.00470855829502 H 0.0 **** 0.06
2153 H 303.18471960405793 298.2673142022137 158.33503749938143 H 0.0 **** 0.06
2154 H 303.46158385083663 296.75278300570955 157.4405936944636 H 0.0 **** 0.06
2155 H 304.7656324934789 297.9568618417671 157.5754994464911 H 0.0 **** 0.06
2156 C 190.36982228200964 102.76806229870016 269.68797348633336 C 0.0 **** -0.24
2157 H 190.3994440567127 102.07287685658511 268.84948967761585 H 0.0 **** 0.06
2158 H 191.29783112373661 102.69322907093033 270.25503514858565 H 0.0 **** 0.06
2159 H 189.52805810966106 102.52110536750268 270.33385249665537 H 0.0 **** 0.06
2160 H 190.25395583792834 103.78503789978242 269.3135166224767 H 0.0 **** 0.06
2161 C 71.24822746881352 226.80971297931026 245.92571466934365 C 0.0 **** -0.24
2162 H 70.16985682216497 226.69313846459312 245.81867504989503 H 0.0 **** 0.06
2163 H 71.46454718432818 227.7707359362709 246.39337481426892 H 0.0 **** 0.06
2164 H 71.71648303367172 226.77024893682312 244.9429778487903 H 0.0 **** 0.06
2165 H 71.6405606019031 226.00639374534765 246.5488745754622 H 0.0 **** 0.06
2166 C 240.8276103978223 200.05501167708007 305.128845126109 C 0.0 **** -0.24
2167 H 241.4369977103514 200.09246961444762 304.22643316270256 H 0.0 **** 0.06
2168 H 241.29683366697537 199.39408515449242 305.8575151506742 H 0.0 **** 0.06
2169 H 239.83504945200372 199.67681022186474 304.88163108207016 H 0.0 **** 0.06
2170 H 240.73914585256168 201.05692140119731 305.5501339623417 H 0.0 **** 0.06
2171 C 3.7564524794888 63.07947540095367 12.881555999880163 C 0.0 **** -0.24
2172 H 2.6994180312637326 63.04493594725511 13.144583659120357 H 0.0 **** 0.06
2173 H 4.357066218949015 62.8370373423636 13.759151738701107 H 0.0 **** 0.06
2174 H 4.011013228834727 64.08067295929663 12.532480609348667 H 0.0 **** 0.06
2175 H 3.9583711279088902 62.35616867880202 12.091086140789173 H 0.0 **** 0.06
2176 C 288.8556574278442 61.21406161996916 253.84365583403337 C 0.0 **** -0.24
2177 H 289.775130008543 61.387765794315214 253.2842951410704 H 0.0 **** 0.06
2178 H 287.9974923823666 61.37557265859155 253.19163950980175 H 0.0 **** 0.06
2179 H 288.8081974380634 61.9044600445537 254.6856397492345 H 0.0 **** 0.06
2180 H 288.8442381785914 60.18842241904483 254.21336948424124 H 0.0 **** 0.06
2181 C 310.5912127662094 266.0814163807663 44.21574482306286 C 0.0 **** -0.24
2182 H 310.19765976309714 266.14941609930946 45.230304542980235 H 0.0 **** 0.06
2183 H 311.6300968922918 266.4115835812214 44.20606269889555 H 0.0 **** 0.06
2184 H 310.0011565834308 266.7151378299984 43.55399171652272 H 0.0 **** 0.06
2185 H 310.5360685551858 265.04793371894004 43.873284526086906 H 0.0 **** 0.06
2186 C 261.76766290728204 234.19256673194525 297.2027599356367 C 0.0 **** -0.24
2187 H 261.1314815625868 234.92977411833763 297.69352965795736 H 0.0 **** 0.06
2188 H 261.50566421055186 233.19462842779672 297.5543892493437 H 0.0 **** 0.06
2189 H 262.812118043337 234.39950600876142 297.4400971706882 H 0.0 **** 0.06
2190 H 261.6224366135422 234.24813759927918 296.1238806316794 H 0.0 **** 0.06
2191 C 64.20315085779137 311.7816322854765 124.56660073585158 C 0.0 **** -0.24
2192 H 63.49617336171244 311.0884041791387 124.11031906331573 H 0.0 **** 0.06
2193 H 64.49071497767531 312.5394311244781 123.83673351949591 H 0.0 **** 0.06
2194 H 65.08882748366554 311.2356294489755 124.89078612226584 H 0.0 **** 0.06
2195 H 63.73750185483149 312.2627502656068 125.42643725695157 H 0.0 **** 0.06
2196 C 196.21330546285952 222.0245316422662 177.6153200522736 C 0.0 **** -0.24
2197 H 196.8055792611928 222.89402867931472 177.33030601742536 H 0.0 **** 0.06
2198 H 195.22929088811162 222.08703254226748 177.14830472704938 H 0.0 **** 0.06
2199 H 196.0993606563133 222.0017858721884 178.6991399456295 H 0.0 **** 0.06
2200 H 196.71685611321055 221.11728700767765 177.28288771138 H 0.0 **** 0.06
2201 C 293.1136655029673 204.98297545391466 177.93131831492678 C 0.0 **** -0.24
2202 H 292.6361919691614 204.64443924806994 177.01235987889714 H 0.0 **** 0.06
2203 H 293.88679587728075 205.71305802558436 177.69028467379331 H 0.0 **** 0.06
2204 H 293.56459444267904 204.13200722964916 178.4416892799427 H 0.0 **** 0.06
2205 H 292.3694297450527 205.4430491095847 178.58071011820658 H 0.0 **** 0.06
2206 C 291.5645146493328 75.88222377631726 107.0860252713438 C 0.0 **** -0.24
2207 H 291.4548982973546 74.79793458569199 107.09313546286623 H 0.0 **** 0.06
2208 H 291.9380600492343 76.2160968484707 108.05475638052764 H 0.0 **** 0.06
2209 H 290.59636925788925 76.34366655894519 106.89124485740962 H 0.0 **** 0.06
2210 H 292.2676284335452 76.17165662373037 106.30572149823331 H 0.0 **** 0.06
2211 C 69.793750670886 234.53411853949416 129.54025783431376 C 0.0 **** -0.24
2212 H 70.10028698054981 234.8675602747408 130.5311798521159 H 0.0 **** 0.06
2213 H 69.14629712984541 233.66109804217353 129.63558088479056 H 0.0 **** 0.06
2214 H 70.6764400373612 234.26969287787395 128.95649083492304 H 0.0 **** 0.06
2215 H 69.25237583414997 235.33592334838607 129.03784198477783 H 0.0 **** 0.06
2216 C 81.737450087029 299.83158148068395 0.3372374455043001 C 0.0 **** -0.24
2217 H 81.72246559495889 298.75670684187685 0.15914667606841704 H 0.0 **** 0.06
2218 H 82.69746082154464 300.1138871640285 0.7709392400763591 H 0.0 **** 0.06
2219 H 80.93465631760085 300.0969557100847 1.0245903597444794 H 0.0 **** 0.06
2220 H 81.59645065164165 300.3578226153699 -0.6064816727913183 H 0.0 **** 0.06
2221 C 83.51188017632859 2.2181659350274288 26.78103850983291 C 0.0 **** -0.24
2222 H 83.39627643308287 3.2440972315745 27.129287120862585 H 0.0 **** 0.06
2223 H 84.51017034495672 2.0870463797012064 26.362891701027763 H 0.0 **** 0.06
2224 H 82.7660643827106 2.007460377261893 26.014685249837527 H 0.0 **** 0.06
2225 H 83.37599875491864 1.5333587411984126 27.61801801728376 H 0.0 **** 0.06
2226 C 133.22836551470314 217.10466650362218 106.25442981682622 C 0.0 **** -0.24
2227 H 132.3844840370518 217.45968610127343 105.66345055840847 H 0.0 **** 0.06
2228 H 134.15737404361676 217.3153561214131 105.72376759623194 H 0.0 **** 0.06
2229 H 133.1353209422891 216.03055352302312 106.4127944577042 H 0.0 **** 0.06
2230 H 133.23618236594174 217.61447281454514 107.21755585725273 H 0.0 **** 0.06
2231 C 169.32642421445848 160.04159573694938 267.77873968317 C 0.0 **** -0.24
2232 H 168.23977823229626 160.09535577839586 267.84977995477715 H 0.0 **** 0.06
2233 H 169.74133612645107 161.04937804049104 267.79777344428845 H 0.0 **** 0.06
2234 H 169.60535998421528 159.5509029055537 266.84634345258445 H 0.0 **** 0.06
2235 H 169.7171269694319 159.47125986899937 268.62047461620017 H 0.0 **** 0.06
2236 C 49.65724003658565 281.16292075760384 7.866578766681542 C 0.0 **** -0.24
2237 H 50.50439450157853 281.84605352982544 7.805905234230067 H 0.0 **** 0.06
2238 H 50.019330615506135 280.13483584015927 7.87483499305803 H 0.0 **** 0.06
2239 H 49.00791060351534 281.3126881973795 7.003706613030431 H 0.0 **** 0.06
2240 H 49.097429405707885 281.35938861201356 8.781282976928225 H 0.0 **** 0.06
2241 C 147.70585725260716 86.25857552803592 50.57761296881097 C 0.0 **** -0.24
2242 H 148.0014878174275 85.98334980502301 49.565570619298 H 0.0 **** 0.06
2243 H 148.4145761935482 85.83744041343371 51.29040327890402 H 0.0 **** 0.06
2244 H 146.70813608279903 85.86839561297467 50.782930914884446 H 0.0 **** 0.06
2245 H 147.69699276476135 87.34420397822254 50.67195615370974 H 0.0 **** 0.06
2246 C 86.44368428736209 53.78888735850492 12.530588212503446 C 0.0 **** -0.24
2247 H 85.51099301975859 53.27290318008477 12.301807359594406 H 0.0 **** 0.06
2248 H 87.19753186663982 53.05947300055908 12.828921712345704 H 0.0 **** 0.06
2249 H 86.27888694291516 54.494986457512994 13.343299870579415 H 0.0 **** 0.06
2250 H 86.78717894522677 54.32643096297949 11.645895808279079 H 0.0 **** 0.06
2251 C 39.38936717432853 175.96615360613276 261.4648706721131 C 0.0 **** -0.24
2252 H 38.910160814903634 176.7338708849466 260.85840320463035 H 0.0 **** 0.06
2253 H 38.67183088074887 175.57220609559647 262.18490010071207 H 0.0 **** 0.06
2254 H 40.23744667768574 176.39829950668138 261.9950946079838 H 0.0 **** 0.06
2255 H 39.73652690347001 175.1585664233163 260.82011225531596 H 0.0 **** 0.06
2256 C 192.3385734418925 74.90304835603249 100.8975912803931 C 0.0 **** -0.24
2257 H 192.03650785943313 74.70148615147002 99.86912620158813 H 0.0 **** 0.06
2258 H 193.36984910721395 75.25524681122019 100.91000492334737 H 0.0 **** 0.06
2259 H 192.25904554126538 73.98866829461005 101.48498106857804 H 0.0 **** 0.06
2260 H 191.68806869439402 75.66652227316578 101.32338054501963 H 0.0 **** 0.06
2261 C 242.95987422440572 164.61636906714352 270.3349300588356 C 0.0 **** -0.24
2262 H 243.07220194881012 164.8486370290222 271.3936124582725 H 0.0 **** 0.06
2263 H 243.33307257037293 163.6107594290633 270.1419492338582 H 0.0 **** 0.06
2264 H 243.5275856941408 165.3347478223846 269.7434421032266 H 0.0 **** 0.06
2265 H 241.90646093476064 164.67230356288928 270.0605578239747 H 0.0 **** 0.06
2266 C 135.93672580382366 26.996550963815366 255.73738574261208 C 0.0 **** -0.24
2267 H 136.6094568440787 26.630123539436966 256.5123123434474 H 0.0 **** 0.06
2268 H 135.1928646540561 27.655714230548057 256.1846180384351 H 0.0 **** 0.06
2269 H 135.43620237462338 26.152610879512082 255.26308543780058 H 0.0 **** 0.06
2270 H 136.50760306998174 27.547125215165323 254.98950440721677 H 0.0 **** 0.06
2271 C 147.20271474392123 192.90302080405183 217.4210047346822 C 0.0 **** -0.24
2272 H 146.8823500025462 192.43919502134145 216.48791340625758 H 0.0 **** 0.06
2273 H 146.33136644932432 193.2925968518859 217.9494231409085 H 0.0 **** 0.06
2274 H 147.89096030685712 193.71927614395872 217.20329710566602 H 0.0 **** 0.06
2275 H 147.70334373395883 192.16086887309058 218.04242526323262 H 0.0 **** 0.06
2276 C 252.75770999686125 73.87210932312598 27.878190110939386 C 0.0 **** -0.24
2277 H 251.67917957468035 73.7281362311777 27.943521785611665 H 0.0 **** 0.06
2278 H 253.02746265066423 74.81701442293189 28.350756732486957 H 0.0 **** 0.06
2279 H 253.05883242113507 73.89022120366576 26.83042172118843 H 0.0 **** 0.06
2280 H 253.26529523783321 73.0530615292827 28.38706267010957 H 0.0 **** 0.06
2281 C 285.65674271591837 153.07239277986702 86.22650801794319 C 0.0 **** -0.24
2282 H 285.1026409824227 152.14165198677637 86.3434660870517 H 0.0 **** 0.06
2283 H 286.24926152970477 153.02972036275384 85.31289821735743 H 0.0 **** 0.06
2284 H 286.31827517702294 153.2113796492277 87.08191073332688 H 0.0 **** 0.06
2285 H 284.9582830829854 153.90684994187149 86.16863977767949 H 0.0 **** 0.06
2286 C 17.126371265526984 278.8883254181031 235.81680662602054 C 0.0 **** -0.24
2287 H 17.861185411211125 279.32588139138915 235.14118965582375 H 0.0 **** 0.06
2288 H 17.04234752755849 277.81908644196733 235.61800174377498 H 0.0 **** 0.06
2289 H 16.158872765867216 279.36423073075065 235.65905957079167 H 0.0 **** 0.06
2290 H 17.44413004971119 279.0422649744711 236.84774373141772 H 0.0 **** 0.06
2291 C 114.567523090491 68.89071049497298 234.22655900716575 C 0.0 **** -0.24
2292 H 113.94496700931035 68.97418517005741 235.1181610824391 H 0.0 **** 0.06
2293 H 114.18340413923434 68.09233976930716 233.59056830629606 H 0.0 **** 0.06
2294 H 115.5915431256521 68.66083985617215 234.51996624027151 H 0.0 **** 0.06
2295 H 114.54845364382368 69.8332903978663 233.6800392635941 H 0.0 **** 0.06
2296 C 105.20919679347972 105.51948905934313 92.97373261180695 C 0.0 **** -0.24
2297 H 104.67533329500301 106.46539621097386 92.87758283567561 H 0.0 **** 0.06
2298 H 104.62039615434833 104.8293925316649 93.5770591688823 H 0.0 **** 0.06
2299 H 106.171383700305 105.69397973802498 93.45599365376253 H 0.0 **** 0.06
2300 H 105.37028587279192 105.09155454392865 91.9841399126648 H 0.0 **** 0.06
2301 C 227.94060867673187 182.99326323882025 5.279408690435616 C 0.0 **** -0.24
2302 H 228.13687206197744 183.88884593652074 5.869259236738799 H 0.0 **** 0.06
2303 H 227.06671540351795 183.1592966337032 4.648385858195752 H 0.0 **** 0.06
2304 H 227.75344853618503 182.15183160497048 5.946763347736464 H 0.0 **** 0.06
2305 H 228.805295189885 182.7748009636669 4.651803859651636 H 0.0 **** 0.06
2306 C 61.26183393143248 92.93945068272205 195.0424819885144 C 0.0 **** -0.24
2307 H 60.79199926353684 92.31042311228643 194.28676375541403 H 0.0 **** 0.06
2308 H 61.676195625627315 92.31262606133109 195.83145893734206 H 0.0 **** 0.06
2309 H 60.51792378212238 93.61383071385052 195.46577457054212 H 0.0 **** 0.06
2310 H 62.0609632954897 93.52247555796112 194.58301097613628 H 0.0 **** 0.06
2311 C 117.22043699644448 263.6241135282858 36.0807470956 C 0.0 **** -0.24
2312 H 117.54372561807057 264.06092853517475 37.02590341561313 H 0.0 **** 0.06
2313 H 117.65346988380111 264.1872997950171 35.25354995996858 H 0.0 **** 0.06
2314 H 116.13334802836741 263.6605563710774 36.01699883784664 H 0.0 **** 0.06
2315 H 117.55375872445512 262.5871715059219 36.02802876419244 H 0.0 **** 0.06
2316 C 263.0263185533893 106.22372420332192 299.9062873679777 C 0.0 **** -0.24
2317 H 262.76900046627287 105.16793844221681 299.98332095093764 H 0.0 **** 0.06
2318 H 262.11599726925266 106.82225665167763 299.93543211675876 H 0.0 **** 0.06
2319 H 263.549686958673 106.4031369527496 298.96701907369106 H 0.0 **** 0.06
2320 H 263.67085101796755 106.50169293608064 300.7407612380631 H 0.0 **** 0.06
2321 C 125.42301363969528 99.49178070696789 103.3593990494316 C 0.0 **** -0.24
2322 H 125.7678336805057 99.3924929191792 102.33095195929641 H 0.0 **** 0.06
2323 H 125.86070039401434 100.38600430621202 103.80478070172512 H 0.0 **** 0.06
2324 H 125.72755226462996 98.61471894971356 103.9308483050751 H 0.0 **** 0.06
2325 H 124.33596439846215 99.57397062746239 103.37201317809121 H 0.0 **** 0.06
2326 C 238.84281093317648 140.71375569861888 198.688726432081 C 0.0 **** -0.24
2327 H 237.94571242172967 140.21643240121 199.05757212994092 H 0.0 **** 0.06
2328 H 238.61869104851823 141.75941074488418 198.47950131815844 H 0.0 **** 0.06
2329 H 239.1793911335572 140.22365045381449 197.77497593597167 H 0.0 **** 0.06
2330 H 239.62772695376708 140.6533163697723 199.44301833896543 H 0.0 **** 0.06
2331 C 135.94646404981484 77.05458334349541 275.8422865291379 C 0.0 **** -0.24
2332 H 135.71713268842683 76.8597894075013 274.7946192158587 H 0.0 **** 0.06
2333 H 136.58245087146133 76.25761760468913 276.2284856058693 H 0.0 **** 0.06
2334 H 135.02146408692553 77.09251268465434 276.4168409473656 H 0.0 **** 0.06
2335 H 136.46656378252678 78.00867724345161 275.9278403023576 H 0.0 **** 0.06
2336 C 66.08304572932613 100.74743423705686 222.40731740049296 C 0.0 **** -0.24
2337 H 66.30753821743167 100.57357233622261 221.35505768391093 H 0.0 **** 0.06
2338 H 66.45072377994558 99.91036185606046 223.00010996649326 H 0.0 **** 0.06
2339 H 65.00405345365269 100.83973542623468 222.53818572139426 H 0.0 **** 0.06
2340 H 66.56800321323868 101.66658057334973 222.73540519240964 H 0.0 **** 0.06
2341 C 185.8163847645185 102.29682426129168 200.66719074054038 C 0.0 **** -0.24
2342 H 184.83119789508095 102.28583133768055 201.13451540539387 H 0.0 **** 0.06
2343 H 186.37328070539974 103.16747479697995 201.01570173396078 H 0.0 **** 0.06
2344 H 185.70395281576384 102.34626905521847 199.58408565808344 H 0.0 **** 0.06
2345 H 186.35578942676227 101.3885874456966 200.9360454359292 H 0.0 **** 0.06
2346 C 200.49519580525936 215.84403094038908 92.7483628826414 C 0.0 **** -0.24
2347 H 199.86082128554926 216.44463645615264 92.09620773641635 H 0.0 **** 0.06
2348 H 200.44798540521606 214.79954532253282 92.43913590240976 H 0.0 **** 0.06
2349 H 200.1482917440341 215.9361485488027 93.77710155893107 H 0.0 **** 0.06
2350 H 201.5242511557591 216.19763435967522 92.67849829303518 H 0.0 **** 0.06
2351 C 108.81327166809032 215.54496032756975 284.0951419449551 C 0.0 **** -0.24
2352 H 109.19686663826789 215.4893648607719 285.11414851763 H 0.0 **** 0.06
2353 H 109.64435591054266 215.6826159293862 283.4028289586679 H 0.0 **** 0.06
2354 H 108.12632717285882 216.3861237964233 284.01112633987924 H 0.0 **** 0.06
2355 H 108.28829243876714 214.62035664841625 283.854585929884 H 0.0 **** 0.06
2356 C 99.12502960255455 29.32432384296152 73.86882577453395 C 0.0 **** -0.24
2357 H 98.09883266588406 29.28199353071551 74.23487815495838 H 0.0 **** 0.06
2358 H 99.43306804640454 30.366067508612247 73.77524262643135 H 0.0 **** 0.06
2359 H 99.18369510421877 28.839026010493626 72.8948798211753 H 0.0 **** 0.06
2360 H 99.78223419845045 28.81168666280942 74.57106262166576 H 0.0 **** 0.06
2361 C 81.36991571323128 285.34234258188303 237.33790834063447 C 0.0 **** -0.24
2362 H 80.49144588036822 285.8017077450738 237.7914607092058 H 0.0 **** 0.06
2363 H 82.10097110350173 286.1149176045142 237.09872597800072 H 0.0 **** 0.06
2364 H 81.07781136441531 284.82273525288844 236.42531882548985 H 0.0 **** 0.06
2365 H 81.80815636934517 284.62945444954295 238.03636878194732 H 0.0 **** 0.06
2366 C 300.8703185893845 280.78614008676027 155.35223564827663 C 0.0 **** -0.24
2367 H 301.2879947569919 281.113622641511 154.4005081964815 H 0.0 **** 0.06
2368 H 301.6519192212925 280.31168474588685 155.94745320641454 H 0.0 **** 0.06
2369 H 300.0684574319225 280.07144796078165 155.17108324747988 H 0.0 **** 0.06
2370 H 300.4755774303988 281.64776490829547 155.89125646162762 H 0.0 **** 0.06
2371 C 210.8249710020275 17.394690323648476 88.69696356625843 C 0.0 **** -0.24
2372 H 210.69843181957344 16.368922294162175 89.04524382879612 H 0.0 **** 0.06
2373 H 210.22757912866666 17.549071773899982 87.79780636514232 H 0.0 **** 0.06
2374 H 211.87562537059029 17.57395190187188 88.47083521771376 H 0.0 **** 0.06
2375 H 210.49729107601928 18.084981694407915 89.47481897906871 H 0.0 **** 0.06
2376 C 198.1297616955079 58.00003131370636 203.55267960890126 C 0.0 **** -0.24
2377 H 197.41330384006847 58.04709875605113 204.3730320630366 H 0.0 **** 0.06
2378 H 198.9909237586162 58.62649633586261 203.78708914601418 H 0.0 **** 0.06
2379 H 197.65714323706288 58.358189315177924 202.638279265956 H 0.0 **** 0.06
2380 H 198.45587512142595 56.96965278585844 203.4143269127415 H 0.0 **** 0.06
2381 C 106.36663049242324 6.076291954388807 65.17403331405637 C 0.0 **** -0.24
2382 H 107.04509790946483 6.845026217538347 64.80593558165671 H 0.0 **** 0.06
2383 H 105.83118780547056 5.631864146320098 64.33548015586013 H 0.0 **** 0.06
2384 H 105.65116683739936 6.523531185471683 65.86539080949149 H 0.0 **** 0.06
2385 H 106.9373871898986 5.305341989644532 65.69100458101866 H 0.0 **** 0.06
2386 C 268.3519226680066 295.50238300898866 168.23658576558194 C 0.0 **** -0.24
2387 H 267.41260947126983 295.4911467761419 168.78951778287723 H 0.0 **** 0.06
2388 H 268.24738706517763 294.90639600945576 167.32975438338832 H 0.0 **** 0.06
2389 H 269.14381181657603 295.0844905439016 168.85808460983372 H 0.0 **** 0.06
2390 H 268.6033474265839 296.52849927292596 167.96983054083728 H 0.0 **** 0.06
2391 C 199.73729979417175 2.6473885094969773 49.623996694306896 C 0.0 **** -0.24
2392 H 200.25060197312052 3.515031440022767 50.040256198316996 H 0.0 **** 0.06
2393 H 199.99243516239233 1.7615713256972754 50.20510701756356 H 0.0 **** 0.06
2394 H 200.04734786514172 2.5048477203877724 48.58818461062259 H 0.0 **** 0.06
2395 H 198.66046639929777 2.8109480628673396 49.66201590810357 H 0.0 **** 0.06
2396 C 142.17322156267042 255.95945006981228 187.85882605236355 C 0.0 **** -0.24
2397 H 142.69255265395887 255.48092180669954 187.02754915732328 H 0.0 **** 0.06
2398 H 142.8723797071222 256.59122669352166 188.40690500457475 H 0.0 **** 0.06
2399 H 141.77384725706497 255.1954715505883 188.52568760851238 H 0.0 **** 0.06
2400 H 141.35653210193217 256.5689965972459 187.47385241769615 H 0.0 **** 0.06
2401 C 283.26188638160403 51.366380885228295 304.0210397250875 C 0.0 **** -0.24
2402 H 284.0337911800397 50.623252004106746 304.22327177513637 H 0.0 **** 0.06
2403 H 282.3098714243631 50.863343062112506 303.8507610685557 H 0.0 **** 0.06
2404 H 283.5339328118778 51.94043770966698 303.13525766820635 H 0.0 **** 0.06
2405 H 283.1711549722183 52.037281771453195 304.8751627613602 H 0.0 **** 0.06
2406 C 216.6135744751417 228.26344034948772 4.387354073325724 C 0.0 **** -0.24
2407 H 217.61525133313577 227.83674100833315 4.348079536213575 H 0.0 **** 0.06
2408 H 216.55702148661027 229.12146632618982 3.717297707044281 H 0.0 **** 0.06
2409 H 216.3957316376849 228.5835156191094 5.40681210327179 H 0.0 **** 0.06
2410 H 215.88671084936243 227.51220845804022 4.079634620836359 H 0.0 **** 0.06
2411 C 121.56398473614911 42.79861055820379 228.20156409939 C 0.0 **** -0.24
2412 H 122.34549355632774 43.040781538381225 228.92168945635788 H 0.0 **** 0.06
2413 H 121.46098259468172 41.715629029535336 228.12809355595684 H 0.0 **** 0.06
2414 H 121.8305681293283 43.20648558955267 227.22643866945447 H 0.0 **** 0.06
2415 H 120.61924061616307 43.23208317850671 228.53129639977675 H 0.0 **** 0.06
2416 C 234.73123487604255 96.64339619963073 223.14108120774333 C 0.0 **** -0.24
2417 H 235.3815528717762 97.05055893333798 223.9155360897897 H 0.0 **** 0.06
2418 H 233.83308256806743 96.23042540900713 223.60116371262237 H 0.0 **** 0.06
2419 H 235.25796962288143 95.85641588798396 222.60103320338519 H 0.0 **** 0.06
2420 H 234.45292064462012 97.43639602384226 222.4473739101135 H 0.0 **** 0.06
2421 C 32.61793183941771 155.2955804845726 245.0930877652081 C 0.0 **** -0.24
2422 H 32.13231215391576 156.2572104416879 244.92432846683602 H 0.0 **** 0.06
2423 H 31.973452999037875 154.49448428018349 244.73088720414398 H 0.0 **** 0.06
2424 H 32.79766349044135 155.16246517809088 246.16013940457853 H 0.0 **** 0.06
2425 H 33.56745014685097 155.2693642239833 244.55867964363904 H 0.0 **** 0.06
2426 C 144.45771287663538 136.23548384029692 98.15066558375923 C 0.0 **** -0.24
2427 H 144.27274516153335 137.28015958835238 97.90263761935864 H 0.0 **** 0.06
2428 H 144.97490423580118 135.75196898999206 97.32102057283396 H 0.0 **** 0.06
2429 H 143.50867260797492 135.7304927533315 98.3298133414032 H 0.0 **** 0.06
2430 H 145.0752592128154 136.17795970067692 99.04661527141059 H 0.0 **** 0.06
2431 C 157.0850745022379 21.43948141692414 166.5543957843455 C 0.0 **** -0.24
2432 H 156.22746210357928 22.111055073488387 166.54533263822367 H 0.0 **** 0.06
2433 H 156.89613914731007 20.598358159198725 165.8878356264126 H 0.0 **** 0.06
2434 H 157.24656122000607 21.070662761108537 167.5684890738416 H 0.0 **** 0.06
2435 H 157.9712824207906 21.97834335782963 166.2194529789694 H 0.0 **** 0.06
2436 C 212.21772108331055 188.95517054149298 219.54853093543792 C 0.0 **** -0.24
2437 H 212.9714149148179 188.1710664113965 219.60906740718593 H 0.0 **** 0.06
2438 H 211.42225484242977 188.64312633146886 218.87158468804063 H 0.0 **** 0.06
2439 H 212.6750730319721 189.8715793318753 219.17361297057488 H 0.0 **** 0.06
2440 H 211.8015505809356 189.13618306205564 220.54003279348598 H 0.0 **** 0.06
2441 C 21.81663406508943 117.59021239640163 253.38961859988802 C 0.0 **** -0.24
2442 H 20.926962403302525 117.95019151037175 252.87301070106327 H 0.0 **** 0.06
2443 H 22.496187213240432 117.13578794992557 252.66746605446497 H 0.0 **** 0.06
2444 H 21.52904662375397 116.84851122571561 254.13405407863502 H 0.0 **** 0.06
2445 H 22.31478837624087 118.42527405708711 253.88137021553 H 0.0 **** 0.06
2446 C 60.50670906936281 81.53574597462764 29.73515122702591 C 0.0 **** -0.24
2447 H 61.182074267249504 82.19016340383007 30.286450627281027 H 0.0 **** 0.06
2448 H 61.02620802328133 80.6126321934818 29.47725951373036 H 0.0 **** 0.06
2449 H 60.17965420049231 82.03615848297844 28.823227552512662 H 0.0 **** 0.06
2450 H 59.63984475270985 81.30507341718257 30.353801188227607 H 0.0 **** 0.06
2451 C 63.47077709410817 11.858421439987524 58.72675596178601 C 0.0 **** -0.24
2452 H 63.95361759925791 12.804432647685644 58.971970545136 H 0.0 **** 0.06
2453 H 64.22807157291064 11.12606779553306 58.44514352162474 H 0.0 **** 0.06
2454 H 62.781473472576295 12.007119191381037 57.89490570418465 H 0.0 **** 0.06
2455 H 62.91955966684995 11.496512583579431 59.594196838009736 H 0.0 **** 0.06
2456 C 111.4502645680877 199.3342843111605 234.77061609879595 C 0.0 **** -0.24
2457 H 110.87184470298374 200.24132125708985 234.9431553221589 H 0.0 **** 0.06
2458 H 110.8503250873861 198.6237455576076 234.20256095505505 H 0.0 **** 0.06
2459 H 111.72740578094249 198.89307810778047 235.72796670524735 H 0.0 **** 0.06
2460 H 112.3522118853081 199.5810282957982 234.20934985284907 H 0.0 **** 0.06
2461 C 299.8984735125427 99.97225573591288 77.06523954118265 C 0.0 **** -0.24
2462 H 299.39074185596417 99.15213211928835 76.55679861843561 H 0.0 **** 0.06
2463 H 300.67581642754874 100.37635059339141 76.41568608320685 H 0.0 **** 0.06
2464 H 300.3502437037513 99.60288639848932 77.98680632908307 H 0.0 **** 0.06
2465 H 299.17805706585705 100.75482742796868 77.30195041364689 H 0.0 **** 0.06
2466 C 188.76210986546693 196.2957844899114 195.15716477755672 C 0.0 **** -0.24
2467 H 187.6797578246739 196.3136115518065 195.02741652897527 H 0.0 **** 0.06
2468 H 189.2085024457944 195.65384327779662 194.39777061504827 H 0.0 **** 0.06
2469 H 189.00307754761639 195.91017675158668 196.14722568133374 H 0.0 **** 0.06
2470 H 189.15537102452714 197.30735248910554 195.05498261225182 H 0.0 **** 0.06
2471 C 106.51884962224088 200.98074145381048 83.67954008811316 C 0.0 **** -0.24
2472 H 106.35297709194722 201.2329259742284 84.72724406558606 H 0.0 **** 0.06
2473 H 107.34239460256015 200.27051412921878 83.60355874713935 H 0.0 **** 0.06
2474 H 106.7642000498046 201.88502980754396 83.1233062456864 H 0.0 **** 0.06
2475 H 105.61439807304399 200.5338791562736 83.266413190608 H 0.0 **** 0.06
2476 C 61.350732730031865 279.0014501856938 99.21175147368294 C 0.0 **** -0.24
2477 H 61.41579352274317 279.95030202391274 99.74388080998577 H 0.0 **** 0.06
2478 H 61.20412393960976 279.19075602688076 98.14852219004467 H 0.0 **** 0.06
2479 H 60.51034929488006 278.4255998032215 99.59868734234945 H 0.0 **** 0.06
2480 H 62.27349248323759 278.43975266966345 99.35790101833607 H 0.0 **** 0.06
2481 C 170.46932844194293 292.7953493728887 47.25287709107792 C 0.0 **** -0.24
2482 H 171.51473248220492 292.89923152015274 47.54283957208207 H 0.0 **** 0.06
2483 H 170.15833890563619 293.6780238692007 46.69251774245001 H 0.0 **** 0.06
2484 H 169.85198892509334 292.6956369405456 48.14568149402919 H 0.0 **** 0.06
2485 H 170.35259161114112 291.9088793619179 46.62960605764326 H 0.0 **** 0.06
2486 C 201.00124301548846 144.39849028606892 292.9395860566517 C 0.0 **** -0.24
2487 H 200.1396874745945 144.10361902426575 293.5395021703455 H 0.0 **** 0.06
2488 H 201.75926071610763 143.61582786215797 292.98479723456865 H 0.0 **** 0.06
2489 H 201.41393242364063 145.32912810158632 293.3295245905779 H 0.0 **** 0.06
2490 H 200.68996739428331 144.54436406960096 291.90518638674826 H 0.0 **** 0.06
2491 C 145.52362091543853 105.22358651990248 270.90293925843133 C 0.0 **** -0.24
2492 H 145.58587150180665 106.24979441819534 270.5398944031205 H 0.0 **** 0.06
2493 H 146.46454179285496 104.95080959627836 271.38113587459713 H 0.0 **** 0.06
2494 H 145.33392644877767 104.55280775515291 270.0645847922237 H 0.0 **** 0.06
2495 H 144.71133263798856 105.14273537157655 271.62498302043235 H 0.0 **** 0.06
2496 C 91.84298089187104 180.70741613414287 308.95801143300537 C 0.0 **** -0.24
2497 H 92.46519362195698 181.27709354424934 309.64754265964825 H 0.0 **** 0.06
2498 H 91.97808625989103 181.09000818041426 307.9458018595779 H 0.0 **** 0.06
2499 H 90.7968758099743 180.80456384055321 309.24797837869636 H 0.0 **** 0.06
2500 H 92.1334121982701 179.65686204108164 308.9906627447801 H 0.0 **** 0.06
2501 C 161.28624547829264 130.4920383697798 239.86632200352625 C 0.0 **** -0.24
2502 H 161.9664086261152 131.124977011261 240.43679647357789 H 0.0 **** 0.06
2503 H 161.5086568935979 129.44442018634751 240.0708205539441 H 0.0 **** 0.06
2504 H 161.41310034826904 130.68934904608952 238.80193547213923 H 0.0 **** 0.06
2505 H 160.25892857184715 130.70868473485763 240.15585899143528 H 0.0 **** 0.06
2506 C 102.56518439274407 32.97854695375497 199.2017746813442 C 0.0 **** -0.24
2507 H 103.38630615914141 32.812193481217776 199.8994020310788 H 0.0 **** 0.06
2508 H 102.26199912156054 34.02489529228967 199.24118529794697 H 0.0 **** 0.06
2509 H 101.72188738705373 32.34437609504005 199.4762338487244 H 0.0 **** 0.06
2510 H 102.89255191658359 32.73180960184021 198.19231169105075 H 0.0 **** 0.06
2511 C 216.6014327855966 303.157079750266 264.3546466893347 C 0.0 **** -0.24
2512 H 217.51149676439627 302.83261909547616 263.85016756447294 H 0.0 **** 0.06
2513 H 215.7337268547942 302.85277196564334 263.7692523433897 H 0.0 **** 0.06
2514 H 216.60987916950683 304.24197646294533 264.4554937392908 H 0.0 **** 0.06
2515 H 216.55177244428427 302.7003558594822 265.34309319166584 H 0.0 **** 0.06
2516 C 37.20382182875187 298.5940163141307 135.0634680944071 C 0.0 **** -0.24
2517 H 37.36455336058731 299.23260821443387 134.19515184599697 H 0.0 **** 0.06
2518 H 36.15226767257201 298.31135860850003 135.11732744903367 H 0.0 **** 0.06
2519 H 37.48242754332193 299.1338415098312 135.9686768909487 H 0.0 **** 0.06
2520 H 37.81670680493977 297.69612742365024 134.97257857234186 H 0.0 **** 0.06
2521 C 17.33472496906667 160.05074808645173 102.34584824902691 C 0.0 **** -0.24
2522 H 18.186425723421678 160.7251565426476 102.43336058061178 H 0.0 **** 0.06
2523 H 16.56747043160364 160.51348220768136 101.72451503638422 H 0.0 **** 0.06
2524 H 16.927572334323187 159.84920954022118 103.33690541111227 H 0.0 **** 0.06
2525 H 17.658277563045516 159.11560892971193 101.88887251013662 H 0.0 **** 0.06
2526 C 237.40774886048803 271.83835504324054 249.45169539683604 C 0.0 **** -0.24
2527 H 237.58555847626724 272.7768580942229 249.97576896902672 H 0.0 **** 0.06
2528 H 236.35521330900406 271.77053716102125 249.17549076176846 H 0.0 **** 0.06
2529 H 237.66737494290953 271.00372420589747 250.10254254512438 H 0.0 **** 0.06
2530 H 238.02292327525936 271.8032597186079 248.55270590500675 H 0.0 **** 0.06
2531 C 180.11665829163957 187.25938912361198 61.13433768436167 C 0.0 **** -0.24
2532 H 179.2316719232985 186.90870150136897 60.60488356717957 H 0.0 **** 0.06
2533 H 179.94162796855306 188.2694903413245 61.50554688248536 H 0.0 **** 0.06
2534 H 180.96861077957413 187.2646433910263 60.45400269067363 H 0.0 **** 0.06
2535 H 180.32472249513233 186.5947212607283 61.97291759710811 H 0.0 **** 0.06
2536 C 262.22660148012557 146.1687501714612 228.7358273077406 C 0.0 **** -0.24
2537 H 261.4194513678057 145.65976648328115 229.26239985742666 H 0.0 **** 0.06
2538 H 261.8905352190743 146.44188284810525 227.7347636903147 H 0.0 **** 0.06
2539 H 263.0875743486791 145.504520879896 228.66221673213286 H 0.0 **** 0.06
2540 H 262.5066313106012 147.06857755345922 229.28374000840176 H 0.0 **** 0.06
2541 C 204.89664952407287 253.9639263077607 295.42455575758436 C 0.0 **** -0.24
2542 H 204.9210846233525 253.05787558001938 296.0310921213069 H 0.0 **** 0.06
2543 H 205.8902540160605 254.15853229987619 295.02213189321935 H 0.0 **** 0.06
2544 H 204.58209476331734 254.805298862961 296.0426252352361 H 0.0 **** 0.06
2545 H 204.19085002254133 253.83181104912225 294.60373666811483 H 0.0 **** 0.06
2546 C 218.49560526994583 210.72855339605377 172.29097562467348 C 0.0 **** -0.24
2547 H 219.5596996415245 210.9595997992328 172.33988449660723 H 0.0 **** 0.06
2548 H 217.9230042188683 211.6564388120051 172.2883214809816 H 0.0 **** 0.06
2549 H 218.21367015886096 210.1302419403068 173.15741335777534 H 0.0 **** 0.06
2550 H 218.28666975687574 210.1696259731657 171.3791470034489 H 0.0 **** 0.06
2551 C 92.45258985407546 150.04896048934722 285.03200784613415 C 0.0 **** -0.24
2552 H 92.94928571515413 149.9079593320102 284.07170828446897 H 0.0 **** 0.06
2553 H 91.38406850716134 149.8612582449931 284.9190461007287 H 0.0 **** 0.06
2554 H 92.60781255493379 151.0728176881941 285.37325365593836 H 0.0 **** 0.06
2555 H 92.86875182356488 149.35509194768093 285.7619852494257 H 0.0 **** 0.06
2556 C 21.043955856140798 100.22454323926746 312.96167961362374 C 0.0 **** -0.24
2557 H 21.42248524679991 99.26371310023862 312.6124815384502 H 0.0 **** 0.06
2558 H 21.34464213191856 100.3772522635565 313.99897324352855 H 0.0 **** 0.06
2559 H 19.956815420456422 100.23324056038382 312.89355933149216 H 0.0 **** 0.06
2560 H 21.45361516334168 101.02255717343414 312.34343746260794 H 0.0 **** 0.06
2561 C 312.7832364937398 80.05263731794537 279.7065148002497 C 0.0 **** -0.24
2562 H 312.9207197731728 79.14769110358745 280.2986972457587 H 0.0 **** 0.06
2563 H 311.7255528834128 80.31817032968169 279.69076817729126 H 0.0 **** 0.06
2564 H 313.12968025091664 79.87683068807925 278.6893087784142 H 0.0 **** 0.06
2565 H 313.3562241722823 80.8671836684515 280.15010550706995 H 0.0 **** 0.06
2566 C 38.53497523098895 23.50121155577162 271.93508357211397 C 0.0 **** -0.24
2567 H 37.93255915154555 23.485920054180696 271.0267943080218 H 0.0 **** 0.06
2568 H 38.76544230070863 22.47870870706231 272.2358097073672 H 0.0 **** 0.06
2569 H 37.97928523468738 23.998559516173913 272.73066511332195 H 0.0 **** 0.06
2570 H 39.46250509843935 24.043067837399093 271.74704775031375 H 0.0 **** 0.06
2571 C 250.31382155157948 248.81034167265827 53.27711295288162 C 0.0 **** -0.24
2572 H 249.54464424893183 248.06078214072926 53.46146352170888 H 0.0 **** 0.06
2573 H 249.9792636150118 249.77548549462065 53.65764119169981 H 0.0 **** 0.06
2574 H 250.49840480137536 248.8861053676876 52.20562649220443 H 0.0 **** 0.06
2575 H 251.23328747020707 248.5186607583827 53.784609769056146 H 0.0 **** 0.06
2576 C 142.0189173035685 307.1858615617832 71.35606533417621 C 0.0 **** -0.24
2577 H 142.11246743991205 306.54763838074973 70.47738968677089 H 0.0 **** 0.06
2578 H 140.98135999450776 307.50129926069434 71.46762357063969 H 0.0 **** 0.06
2579 H 142.65513042667828 308.06278816292263 71.23611972828692 H 0.0 **** 0.06
2580 H 142.3287110665706 306.63127536481034 72.24178556324682 H 0.0 **** 0.06
2581 C 271.00207534068096 35.71867366285636 35.83025984951823 C 0.0 **** -0.24
2582 H 271.1963978559541 35.041164142323225 34.998838801365736 H 0.0 **** 0.06
2583 H 271.94604651627947 35.98876284867973 36.306832629910474 H 0.0 **** 0.06
2584 H 270.35517084941324 35.22711843189714 36.556631918330794 H 0.0 **** 0.06
2585 H 270.5126401342981 36.61852385804997 35.45809032700811 H 0.0 **** 0.06
2586 C 300.69407550600386 312.2101256740591 9.637970226897195 C 0.0 **** -0.24
2587 H 300.6774490401818 312.1818976670894 8.549775355877003 H 0.0 **** 0.06
2588 H 301.6453704459517 312.62245253114645 9.97713369585125 H 0.0 **** 0.06
2589 H 300.57653868580627 311.1994075976877 10.029441066481482 H 0.0 **** 0.06
2590 H 299.87790603039497 312.8362643008672 9.998331374600255 H 0.0 **** 0.06
2591 C 174.60255337393846 41.39498779110548 17.709208051635443 C 0.0 **** -0.24
2592 H 173.72292253925661 41.81386620328661 18.198417436639716 H 0.0 **** 0.06
2593 H 174.5723010975691 41.629130987226574 16.644982457891174 H 0.0 **** 0.06
2594 H 174.6120780173664 40.31320326220228 17.84425569624173 H 0.0 **** 0.06
2595 H 175.50262894597392 41.82381774897195 18.15013342327032 H 0.0 **** 0.06
2596 C 213.4955822926509 263.6335310870931 307.222320427633 C 0.0 **** -0.24
2597 H 213.29144475740367 262.5630747194459 307.25738300956664 H 0.0 **** 0.06
2598 H 213.53935080870087 263.9599083769806 306.18308343196696 H 0.0 **** 0.06
2599 H 214.45000466367682 263.8368548756253 307.70799184413784 H 0.0 **** 0.06
2600 H 212.70212266088754 264.1718614100337 307.73949411262663 H 0.0 **** 0.06
2601 C 162.8282508923494 178.68744171055164 303.13994365326283 C 0.0 **** -0.24
2602 H 161.88064117807886 178.25849562128337 302.8141608547264 H 0.0 **** 0.06
2603 H 163.23763672256285 178.08754747130428 303.95385427603776 H 0.0 **** 0.06
2604 H 162.66510808376063 179.7072370261181 303.4873170611846 H 0.0 **** 0.06
2605 H 163.5300365254393 178.6941473819483 302.3062732707775 H 0.0 **** 0.06
2606 C 276.1581777307953 276.57500849841557 138.31471347418048 C 0.0 **** -0.24
2607 H 276.0812038128095 276.06871242543923 137.35208236308003 H 0.0 **** 0.06
2608 H 277.20816001569085 276.7626144382293 138.54285941416006 H 0.0 **** 0.06
2609 H 275.72467500742624 275.9462201873505 139.09159698732074 H 0.0 **** 0.06
2610 H 275.6213421127442 277.5218672936266 138.27161725322918 H 0.0 **** 0.06
2611 C 7.623297330322885 12.779697201135562 252.68291294388905 C 0.0 **** -0.24
2612 H 7.317045703213466 12.620660786608724 253.71660956644186 H 0.0 **** 0.06
2613 H 6.999756472599884 12.175706627348347 252.02252703948216 H 0.0 **** 0.06
2614 H 8.666829627931435 12.488571615627748 252.56450016755662 H 0.0 **** 0.06
2615 H 7.5085902959171165 13.833623314235382 252.42812990361344 H 0.0 **** 0.06
2616 C 306.87328162490945 215.7145557666013 261.7919997958976 C 0.0 **** -0.24
2617 H 306.1055947702078 216.2592981404814 261.24280767346323 H 0.0 **** 0.06
2618 H 307.4178582526572 215.06503175516735 261.1061891747491 H 0.0 **** 0.06
2619 H 306.4044425925317 215.11170040446189 262.56909484772996 H 0.0 **** 0.06
2620 H 307.5640554946365 216.42266610558175 262.2480650892895 H 0.0 **** 0.06
2621 C 192.9748087448608 310.92876812601787 225.64438957039042 C 0.0 **** -0.24
2622 H 192.49948917205256 311.0836636880283 226.61342982877954 H 0.0 **** 0.06
2623 H 192.84458995488075 311.81903291787575 225.03017217308593 H 0.0 **** 0.06
2624 H 192.51560919973275 310.0739134981985 225.14732650020972 H 0.0 **** 0.06
2625 H 194.03805596690188 310.7374090126646 225.7879213882984 H 0.0 **** 0.06
2626 C 293.84901016964443 81.04555220290345 60.0149195956414 C 0.0 **** -0.24
2627 H 293.4087760711589 80.24690082091067 59.41847910798916 H 0.0 **** 0.06
2628 H 294.4254254215325 80.61348643261186 60.833058323671395 H 0.0 **** 0.06
2629 H 293.0564265819501 81.67461957251459 60.42104993721193 H 0.0 **** 0.06
2630 H 294.5052939542709 81.64819458402462 59.387116996018165 H 0.0 **** 0.06
2631 C 193.88108161786636 128.20613688316925 66.9850055410904 C 0.0 **** -0.24
2632 H 194.7750234227122 128.56837860523973 66.47703670784719 H 0.0 **** 0.06
2633 H 194.08692210028875 128.09792223899564 68.04983728170737 H 0.0 **** 0.06
2634 H 193.59463494143978 127.23930796433677 66.56932717991373 H 0.0 **** 0.06
2635 H 193.06832672075961 128.91857539996514 66.84194195653842 H 0.0 **** 0.06
2636 C 218.14749174405426 274.8902826482668 86.33565907372227 C 0.0 **** -0.24
2637 H 218.8947676937445 275.5407518358553 85.88082741001722 H 0.0 **** 0.06
2638 H 218.64313028054173 274.040157869618 86.80453928479866 H 0.0 **** 0.06
2639 H 217.46110096474143 274.5334996066141 85.5674475720289 H 0.0 **** 0.06
2640 H 217.59086462281857 275.44832015027015 87.08916404934467 H 0.0 **** 0.06
2641 C 230.8709291917063 266.4058065659204 19.68817805636462 C 0.0 **** -0.24
2642 H 230.56797356620777 265.416086838262 19.34908501376634 H 0.0 **** 0.06
2643 H 230.34331321541003 267.16531141450946 19.110817580942808 H 0.0 **** 0.06
2644 H 231.9460389386909 266.523555568493 19.547894200771793 H 0.0 **** 0.06
2645 H 230.6285064245315 266.51767928987323 20.745331805322508 H 0.0 **** 0.06
2646 C 92.0531442280977 162.34383661371487 128.54340887366718 C 0.0 **** -0.24
2647 H 92.03047734268995 162.8589468964513 127.58297461787734 H 0.0 **** 0.06
2648 H 92.0718561724621 161.26669039760628 128.37754072657478 H 0.0 **** 0.06
2649 H 91.16516671091054 162.60850433241956 129.11746224882737 H 0.0 **** 0.06
2650 H 92.94451322882006 162.6431775966637 129.0947686750627 H 0.0 **** 0.06
2651 C 79.33087334821522 52.15892918694868 267.02727808331184 C 0.0 **** -0.24
2652 H 79.03135373758406 51.45153087846691 266.25488182508536 H 0.0 **** 0.06
2653 H 79.95647875169638 52.935336959879635 266.5861950955377 H 0.0 **** 0.06
2654 H 79.8930397900368 51.63576014882611 267.80055578074507 H 0.0 **** 0.06
2655 H 78.44381103282905 52.61375338365045 267.4678569610857 H 0.0 **** 0.06
2656 C 1.5982063910617796 310.376534179385 25.137065936210433 C 0.0 **** -0.24
2657 H 1.139810333585828 309.4006905094226 24.97522484617747 H 0.0 **** 0.06
2658 H 2.637717685691925 310.24316297904534 25.43754179829648 H 0.0 **** 0.06
2659 H 1.0580915945382685 310.90517655438043 25.92170571994609 H 0.0 **** 0.06
2660 H 1.5573859436229753 310.95411310622626 24.213870062187425 H 0.0 **** 0.06
2661 C 37.04764147930442 244.1443224451256 128.0552299414343 C 0.0 **** -0.24
2662 H 36.56837123974506 244.05675444936452 127.080063168772 H 0.0 **** 0.06
2663 H 37.530191209712285 245.1182949057801 128.1363086271459 H 0.0 **** 0.06
2664 H 37.794094478603 243.35784443992387 128.16552326045837 H 0.0 **** 0.06
2665 H 36.29650885518859 244.04419698176747 128.8390303143709 H 0.0 **** 0.06
2666 C 31.686987955286753 184.3686881295659 160.92306185915368 C 0.0 **** -0.24
2667 H 31.48980147081096 183.30031101315495 160.8326949453877 H 0.0 **** 0.06
2668 H 32.04330382821556 184.58789066993882 161.93045632152837 H 0.0 **** 0.06
2669 H 30.768738933734426 184.92411316242885 160.73313262062567 H 0.0 **** 0.06
2670 H 32.4457560202211 184.66136116964083 160.19727410407353 H 0.0 **** 0.06
2671 C 312.54908774349667 174.90284826663338 143.31575176196387 C 0.0 **** -0.24
2672 H 312.91887418712065 175.76832408959757 142.7651121884367 H 0.0 **** 0.06
2673 H 311.5342752515049 174.67298422934573 142.99125294862947 H 0.0 **** 0.06
2674 H 312.54814795593944 175.12500810289754 144.38254437102125 H 0.0 **** 0.06
2675 H 313.19598579695787 174.04660405731613 143.1227566431805 H 0.0 **** 0.06
2676 C 271.08731867543577 27.345840701630635 256.0420513828056 C 0.0 **** -0.24
2677 H 271.1980045856155 28.385267474960074 256.35023957211473 H 0.0 **** 0.06
2678 H 271.674978843988 27.170558196041867 255.14026098318934 H 0.0 **** 0.06
2679 H 270.0374266982327 27.137362341600607 255.83838509802806 H 0.0 **** 0.06
2680 H 271.4402547627028 26.69014057166561 256.83906255910966 H 0.0 **** 0.06
2681 C 261.1090508591697 304.8324061057354 303.64708755500806 C 0.0 **** -0.24
2682 H 260.1400210534169 304.5903319226615 303.2116019965467 H 0.0 **** 0.06
2683 H 261.3682721720441 305.86372177026453 303.40527633464364 H 0.0 **** 0.06
2684 H 261.86718628175976 304.1620055464184 303.2421479034758 H 0.0 **** 0.06
2685 H 261.0598895904783 304.7132861601481 304.7297994103176 H 0.0 **** 0.06
2686 C 106.95223752366144 155.79219606555392 248.0742697726224 C 0.0 **** -0.24
2687 H 106.33547706233631 156.6042426263317 248.4586306237924 H 0.0 **** 0.06
2688 H 106.55165345049866 155.45309054571715 247.11870229787854 H 0.0 **** 0.06
2689 H 106.94850519393057 154.96529019798038 248.78407756606418 H 0.0 **** 0.06
2690 H 107.97405037674139 156.146127527828 247.93446145064235 H 0.0 **** 0.06
2691 C 162.9346793328316 77.02477811208377 261.45434691229093 C 0.0 **** -0.24
2692 H 162.71995099647512 75.95806715870688 261.3994850088889 H 0.0 **** 0.06
2693 H 163.61203790267575 77.30075110216202 260.645193259537 H 0.0 **** 0.06
2694 H 163.40109147184785 77.2536140483013 262.41215335265287 H 0.0 **** 0.06
2695 H 162.00578951850872 77.58763330707671 261.3583047564552 H 0.0 **** 0.06
2696 C 152.25093462434694 306.0510688382606 38.23227930691698 C 0.0 **** -0.24
2697 H 152.31582160566262 305.0140780196275 37.9021792106183 H 0.0 **** 0.06
2698 H 153.17800817130563 306.33159547958746 38.73306448618709 H 0.0 **** 0.06
2699 H 151.41614365857816 306.15973792245836 38.9249021660132 H 0.0 **** 0.06
2700 H 152.09387536461566 306.69723624301866 37.369553152989766 H 0.0 **** 0.06
2701 C 301.0185108861077 215.17484501891482 63.031267527653455 C 0.0 **** -0.24
2702 H 301.4566070752015 214.33272978682027 62.49509496493633 H 0.0 **** 0.06
2703 H 300.42086329026387 215.7725822668068 62.342858575901005 H 0.0 **** 0.06
2704 H 301.8129115720143 215.7906694845842 63.45192787032349 H 0.0 **** 0.06
2705 H 300.3829736336455 214.80229543140908 63.834632049829764 H 0.0 **** 0.06
2706 C 12.462460709987894 121.7462693509791 239.7023346988388 C 0.0 **** -0.24
2707 H 11.632144534857176 121.77251382610399 238.99690956096543 H 0.0 **** 0.06
2708 H 12.21200207014067 121.08586850118542 240.53370678519747 H 0.0 **** 0.06
2709 H 12.649554094509242 122.75108594957032 240.08048680660775 H 0.0 **** 0.06
2710 H 13.3560131451311 121.37535049250883 239.19919296848653 H 0.0 **** 0.06
2711 C 306.7016769818789 87.13493523280837 96.02549689417876 C 0.0 **** -0.24
2712 H 306.39637420780025 87.23770286397172 94.98404147919084 H 0.0 **** 0.06
2713 H 306.984966248018 88.11212541422523 96.41867484162569 H 0.0 **** 0.06
2714 H 307.55175107246123 86.45651404245143 96.0888851700594 H 0.0 **** 0.06
2715 H 305.8717176550365 86.7346045077455 96.60840098558234 H 0.0 **** 0.06
2716 C 15.485048329214479 275.2107305474831 224.7609275409078 C 0.0 **** -0.24
2717 H 15.552471480292212 274.29770262402866 224.16927183006544 H 0.0 **** 0.06
2718 H 14.780365898444572 275.06263889028116 225.57935400907638 H 0.0 **** 0.06
2719 H 15.14038373791358 276.02892628753955 224.12849699067633 H 0.0 **** 0.06
2720 H 16.467315082970586 275.454698155861 225.16569683437874 H 0.0 **** 0.06
2721 C 192.99652313351186 87.14475110498583 55.82199970171763 C 0.0 **** -0.24
2722 H 193.2805051598324 86.80869493881914 54.824660836246835 H 0.0 **** 0.06
2723 H 192.5769470681489 86.30771118618534 56.381926892598756 H 0.0 **** 0.06
2724 H 192.25264274858887 87.93732242597426 55.74041524008888 H 0.0 **** 0.06
2725 H 193.87680274310878 87.52411677036662 56.34108625665323 H 0.0 **** 0.06
2726 C 146.63425577334237 285.75315138982484 313.26102280130385 C 0.0 **** -0.24
2727 H 146.94695213928514 286.4146225363364 314.06904276116046 H 0.0 **** 0.06
2728 H 147.2447878061399 285.94363146269967 312.3782661363289 H 0.0 **** 0.06
2729 H 145.5862704817724 285.9378905087153 313.02498755690266 H 0.0 **** 0.06
2730 H 146.7586796208151 284.716273523204 313.57315633920336 H 0.0 **** 0.06
2731 C 80.24422404070486 188.40887917231123 81.88011104652159 C 0.0 **** -0.24
2732 H 79.20555910368651 188.35643495856453 82.20383329660561 H 0.0 **** 0.06
2733 H 80.82911703100021 188.94901123206074 82.62441535032124 H 0.0 **** 0.06
2734 H 80.30052412702926 188.93143523112934 80.92446214556276 H 0.0 **** 0.06
2735 H 80.64074012839748 187.40074374749707 81.7669328702597 H 0.0 **** 0.06
2736 C 70.11355059562382 4.388568357156615 232.82234009678157 C 0.0 **** -0.24
2737 H 69.13026560241707 3.9960795578161026 232.56146748746718 H 0.0 **** 0.06
2738 H 70.8261879986957 3.5653755887753533 232.8889130342264 H 0.0 **** 0.06
2739 H 70.05761863913278 4.899950202442838 233.78353028420804 H 0.0 **** 0.06
2740 H 70.44007961453269 5.090641248541488 232.05525287602413 H 0.0 **** 0.06
2741 C 125.9655624328557 62.71734749010025 105.94523955384031 C 0.0 **** -0.24
2742 H 126.35113159431879 63.27884964667584 105.09341497896338 H 0.0 **** 0.06
2743 H 126.79868653963624 62.355554837066734 106.54755064235604 H 0.0 **** 0.06
2744 H 125.38114230493332 61.870284264599576 105.58642573762143 H 0.0 **** 0.06
2745 H 125.33327161108903 63.36519772235923 106.55137051145752 H 0.0 **** 0.06
2746 C 183.66413729143585 72.82892945030235 113.50396358361897 C 0.0 **** -0.24
2747 H 184.02247582465606 71.89888838964936 113.94507181342868 H 0.0 **** 0.06
2748 H 183.20204489046762 72.61791885603336 112.53892653892143 H 0.0 **** 0.06
2749 H 184.50144816816294 73.51125595284509 113.36443802794855 H 0.0 **** 0.06
2750 H 182.9296427442867 73.28498620463108 114.16739130744918 H 0.0 **** 0.06
2751 C 237.36630263720227 225.23306313623735 127.7396599098158 C 0.0 **** -0.24
2752 H 238.334930493266 224.90698319096106 127.35943984151521 H 0.0 **** 0.06
2753 H 237.24228192024933 226.29968371761697 127.55047547478608 H 0.0 **** 0.06
2754 H 237.31647414060225 225.04644419911375 128.8131834776285 H 0.0 **** 0.06
2755 H 236.57412745485615 224.67901855144342 127.23702642090362 H 0.0 **** 0.06
2756 C 255.8018330765309 211.5934853428966 45.0527807582576 C 0.0 **** -0.24
2757 H 255.61537257631093 210.53899711947116 44.85136225175046 H 0.0 **** 0.06
2758 H 255.37915870853604 211.85710647737665 46.02242586199557 H 0.0 **** 0.06
2759 H 255.33567026008987 212.19970621504496 44.276367317782245 H 0.0 **** 0.06
2760 H 256.8758723461604 211.7769797824267 45.06241322360469 H 0.0 **** 0.06
2761 C 36.78529909120067 297.34435291108616 89.1708273008656 C 0.0 **** -0.24
2762 H 36.03204305082053 296.9209745270316 89.83535076326996 H 0.0 **** 0.06
2763 H 37.15553678651901 298.28001424220326 89.59146524320593 H 0.0 **** 0.06
2764 H 36.34169583554643 297.5360669106001 88.19416193299307 H 0.0 **** 0.06
2765 H 37.611335899242505 296.64218147263034 89.06385624420545 H 0.0 **** 0.06
2766 C 230.38696012270518 136.5130456845047 166.77629649246438 C 0.0 **** -0.24
2767 H 230.3928325506179 135.71336568699888 167.51605169526954 H 0.0 **** 0.06
2768 H 230.32096022542953 137.47568018357774 167.28398654328555 H 0.0 **** 0.06
2769 H 229.5290317814096 136.39118769931918 166.11541833383473 H 0.0 **** 0.06
2770 H 231.3054681227597 136.47300712825813 166.19164675701097 H 0.0 **** 0.06
2771 C 30.687326543184952 266.94292418032524 92.802735380537 C 0.0 **** -0.24
2772 H 31.639683096406884 267.4131347479524 92.55854413212137 H 0.0 **** 0.06
2773 H 30.59684314745448 266.002775157114 92.25704964037232 H 0.0 **** 0.06
2774 H 29.87054106075516 267.6066912824437 92.52069450399495 H 0.0 **** 0.06
2775 H 30.6430574250478 266.7461704713741 93.87377346190829 H 0.0 **** 0.06
2776 C 115.70755577821168 273.7151947905723 81.30063634743149 C 0.0 **** -0.24
2777 H 116.13072794366198 273.64728889773295 82.3029957936551 H 0.0 **** 0.06
2778 H 115.46635892343227 274.7549975588661 81.07876559126808 H 0.0 **** 0.06
2779 H 114.80134840480406 273.11236420355885 81.24801670798897 H 0.0 **** 0.06
2780 H 116.4316930250555 273.34733596183776 80.57489639944671 H 0.0 **** 0.06
2781 C 28.41427660099751 153.76097481420146 167.92077062039107 C 0.0 **** -0.24
2782 H 29.04389745304624 154.05868084417244 167.08143334682842 H 0.0 **** 0.06
2783 H 27.79639585692817 154.60471661936816 168.2290343142792 H 0.0 **** 0.06
2784 H 29.044505073418293 153.4478571273915 168.75301501695526 H 0.0 **** 0.06
2785 H 27.774686928861144 152.93222170144213 167.61812945232373 H 0.0 **** 0.06
2786 C 9.85802340688275 187.13786630872949 19.408220726006775 C 0.0 **** -0.24
2787 H 9.067053613704871 186.41107211489538 19.227579288929547 H 0.0 **** 0.06
2788 H 10.444179421767743 186.82897688372054 20.274783365097534 H 0.0 **** 0.06
2789 H 9.416743976831981 188.11605341309166 19.59778285501244 H 0.0 **** 0.06
2790 H 10.505791422138259 187.19492601423866 18.532802458333364 H 0.0 **** 0.06
2791 C 253.19748061574342 129.80639307807982 170.69917161672066 C 0.0 **** -0.24
2792 H 252.6578806792173 129.77560785415136 169.7520488510877 H 0.0 **** 0.06
2793 H 253.03624311697646 130.77357599151367 171.1763162859976 H 0.0 **** 0.06
2794 H 254.2624778279877 129.66325737068172 170.51615397393545 H 0.0 **** 0.06
2795 H 252.83111991388068 129.01352451016083 171.35213304368807 H 0.0 **** 0.06
2796 C 77.69807858930474 141.29957159235525 76.93074700546657 C 0.0 **** -0.24
2797 H 77.5304165230211 140.50092376743925 77.65309901910103 H 0.0 **** 0.06
2798 H 77.28799456912685 141.0073020849434 75.96352366728851 H 0.0 **** 0.06
2799 H 78.76882502507576 141.48002114172633 76.83198272263922 H 0.0 **** 0.06
2800 H 77.20691215041171 142.20944164638428 77.27385392509865 H 0.0 **** 0.06
2801 C 310.28630253537415 70.4282888849188 15.855743279947191 C 0.0 **** -0.24
2802 H 310.7564605735647 71.36853294336498 15.56689404314875 H 0.0 **** 0.06
2803 H 310.53465525343603 69.65905023595099 15.124153107317525 H 0.0 **** 0.06
2804 H 309.2045731916695 70.559250643067 15.89264852732343 H 0.0 **** 0.06
2805 H 310.6500748676957 70.12727155209097 16.837939087044717 H 0.0 **** 0.06
2806 C 285.0733743823241 258.0948063583571 305.95009186397465 C 0.0 **** -0.24
2807 H 284.7732857032453 258.3790603699943 306.9584914820781 H 0.0 **** 0.06
2808 H 285.21181766953487 257.01470717965844 305.9023260795511 H 0.0 **** 0.06
2809 H 286.0085417072218 258.5928633190009 305.69567353749403 H 0.0 **** 0.06
2810 H 284.2988381397288 258.3934353531626 305.24336229452456 H 0.0 **** 0.06
2811 C 40.37853073066478 6.488802297261742 56.63776928332223 C 0.0 **** -0.24
2812 H 41.07066614685098 6.751212635170077 55.83710722348104 H 0.0 **** 0.06
2813 H 40.908431933216036 6.495028173006133 57.59184334617382 H 0.0 **** 0.06
2814 H 39.97152453105335 5.494671687427186 56.454246445824054 H 0.0 **** 0.06
2815 H 39.56658522587247 7.214986976350076 56.6679629314072 H 0.0 **** 0.06
2816 C 292.97405720165074 126.89001222017166 18.560943977193148 C 0.0 **** -0.24
2817 H 293.55850620093315 126.34619501968675 17.81892742161459 H 0.0 **** 0.06
2818 H 293.39493333556663 126.7186296131068 19.55216475784782 H 0.0 **** 0.06
2819 H 291.94163716815115 126.53778811446625 18.538507080583926 H 0.0 **** 0.06
2820 H 292.998694951494 127.95579316190461 18.333663719169323 H 0.0 **** 0.06
2821 C 312.70709643486555 71.1589532707604 0.883885768487545 C 0.0 **** -0.24
2822 H 312.87967328291364 70.57209345365573 -0.019312518084205976 H 0.0 **** 0.06
2823 H 311.86824903702154 70.73669630218302 1.436219400242834 H 0.0 **** 0.06
2824 H 312.4814217283905 72.1891669475026 0.6100937796900467 H 0.0 **** 0.06
2825 H 313.6019759464803 71.13660744752568 1.5065852771949864 H 0.0 **** 0.06
2826 C 198.22869151772335 39.75437612282971 278.4677210422806 C 0.0 **** -0.24
2827 H 197.62109519020476 39.112276245739594 279.10456387670564 H 0.0 **** 0.06
2828 H 198.97668924034122 39.151367598700176 277.95176515050673 H 0.0 **** 0.06
2829 H 198.72724307282243 40.50639842825157 279.0789813365268 H 0.0 **** 0.06
2830 H 197.59050143995984 40.24825695980027 277.7342372330413 H 0.0 **** 0.06
2831 C 188.7801514603612 133.44908120081053 44.71626365277692 C 0.0 **** -0.24
2832 H 188.57275168363236 133.11135854245293 43.70054268147186 H 0.0 **** 0.06
2833 H 189.83274632527468 133.28375424711163 44.946599059879105 H 0.0 **** 0.06
2834 H 188.16166134252785 132.8904612221032 45.41857771518244 H 0.0 **** 0.06
2835 H 188.5530323707735 134.51299956700905 44.79739310544292 H 0.0 **** 0.06
2836 C 250.6576385733676 27.245260233465615 228.4139363037331 C 0.0 **** -0.24
2837 H 250.03083781647035 26.6522945941191 227.7477667214191 H 0.0 **** 0.06
2838 H 250.7223316730055 28.26661459450554 228.03725151891453 H 0.0 **** 0.06
2839 H 251.6551674246842 26.809900157233926 228.45816455039653 H 0.0 **** 0.06
2840 H 250.21957788196409 27.25365702886637 229.41259724708124 H 0.0 **** 0.06
2841 C 111.29927431871079 35.140663107422085 213.21149104673435 C 0.0 **** -0.24
2842 H 110.63746779611256 35.25962809238126 214.0695224040249 H 0.0 **** 0.06
2843 H 111.71321723471954 34.132937515206436 213.20821423834587 H 0.0 **** 0.06
2844 H 112.10952420349375 35.867545307741466 213.27502642741206 H 0.0 **** 0.06
2845 H 110.73474370001574 35.305596171366574 212.29293477635468 H 0.0 **** 0.06
2846 C 153.95608964038632 241.56562053931896 267.21413226361784 C 0.0 **** -0.24
2847 H 154.386016290727 242.51961236047214 266.9081959428158 H 0.0 **** 0.06
2848 H 152.87541812140825 241.59261614050908 267.06829103695816 H 0.0 **** 0.06
2849 H 154.17694478100884 241.3875447821418 268.26578732785725 H 0.0 **** 0.06
2850 H 154.3839692844557 240.76475375230288 266.611850979188 H 0.0 **** 0.06
2851 C 127.39842131455114 92.28078253410334 35.71168155330213 C 0.0 **** -0.24
2852 H 127.8915199817975 93.17280762670873 35.32401250224686 H 0.0 **** 0.06
2853 H 126.40492682594831 92.1947547715121 35.27111001873604 H 0.0 **** 0.06
2854 H 127.3116417701678 92.35637913353332 36.79521134573042 H 0.0 **** 0.06
2855 H 127.98802895668783 91.40055077324979 35.454595522132024 H 0.0 **** 0.06
2856 C 124.27321034815418 270.08256636236655 123.98569084492703 C 0.0 **** -0.24
2857 H 123.31712137421349 269.83402897799283 123.52624184087836 H 0.0 **** 0.06
2858 H 124.84468742301956 269.1690761622471 124.15148577577017 H 0.0 **** 0.06
2859 H 124.09939521943048 270.58103019111763 124.93973930592094 H 0.0 **** 0.06
2860 H 124.83111844500829 270.7465053650535 123.32606450981106 H 0.0 **** 0.06
2861 C 194.7057204771678 308.61444350846614 271.78844168566167 C 0.0 **** -0.24
2862 H 195.06241851796938 307.66402815368286 271.3899865233582 H 0.0 **** 0.06
2863 H 194.61076213076512 308.5401036042523 272.8723179915956 H 0.0 **** 0.06
2864 H 193.7340725076532 308.84861315151727 271.3533323290153 H 0.0 **** 0.06
2865 H 195.41546075312522 309.4025868235564 271.5382133841846 H 0.0 **** 0.06
2866 C 126.75314138342233 148.57544283610005 130.2234660959452 C 0.0 **** -0.24
2867 H 127.13003672076678 148.6608809799468 129.20477253376373 H 0.0 **** 0.06
2868 H 126.33650401703946 147.57943076819905 130.3756489417265 H 0.0 **** 0.06
2869 H 125.97698430441764 149.3230744585469 130.3872906858583 H 0.0 **** 0.06
2870 H 127.56962233128439 148.73940908805793 130.92742226243712 H 0.0 **** 0.06
2871 C 100.31066615254733 134.7473514284032 135.42372315609515 C 0.0 **** -0.24
2872 H 100.62652245053769 134.04352244531978 134.65448918262257 H 0.0 **** 0.06
2873 H 99.60089731082556 135.45736715622127 134.99702746137478 H 0.0 **** 0.06
2874 H 101.17994979831147 135.286119735759 135.80197704990874 H 0.0 **** 0.06
2875 H 99.8355628990806 134.20526822759197 136.24057384387152 H 0.0 **** 0.06
2876 C 131.96499784211113 216.51846176353519 140.89830022231982 C 0.0 **** -0.24
2877 H 130.97837880980387 216.98134871258256 140.87873220605803 H 0.0 **** 0.06
2878 H 132.36631404030013 216.47701679670237 139.88594654320377 H 0.0 **** 0.06
2879 H 131.88417947110895 215.50884253370862 141.29931985426575 H 0.0 **** 0.06
2880 H 132.62996252725804 217.10876545923563 141.52957739519735 H 0.0 **** 0.06
2881 C 304.90707301208045 206.05844514839265 232.18521483471943 C 0.0 **** -0.24
2882 H 304.9383078544657 205.67379473421948 233.20434230023193 H 0.0 **** 0.06
2883 H 305.3921196126455 205.34919746949845 231.51365256613227 H 0.0 **** 0.06
2884 H 305.4286135678748 207.01509092526368 232.14269824778336 H 0.0 **** 0.06
2885 H 303.86925101333577 206.19569746458916 231.8801662247302 H 0.0 **** 0.06
2886 C 252.5173313246774 270.5852067525789 121.913493349357 C 0.0 **** -0.24
2887 H 253.147252631619 270.0551300203897 122.62770701067095 H 0.0 **** 0.06
2888 H 252.44954909376554 271.63467896728037 122.19777311266242 H 0.0 **** 0.06
2889 H 251.5203150450071 270.14404781676933 121.9118550868921 H 0.0 **** 0.06
2890 H 252.95163506182726 270.50513102574257 120.91610099949668 H 0.0 **** 0.06
2891 C 232.19878604878974 210.24732042955037 54.50786147274323 C 0.0 **** -0.24
2892 H 231.1683644752834 209.91695330702228 54.37374473728332 H 0.0 **** 0.06
2893 H 232.67418793387114 210.35479733533614 53.53297629402695 H 0.0 **** 0.06
2894 H 232.7417957940516 209.50926799394162 55.098370041342804 H 0.0 **** 0.06
2895 H 232.20810303899304 211.20635465513254 55.02602930156664 H 0.0 **** 0.06
2896 C 306.31510535885866 256.06382633443684 188.6356545286115 C 0.0 **** -0.24
2897 H 305.8876316198485 255.59589919406488 189.52224166026178 H 0.0 **** 0.06
2898 H 306.5080138525064 257.11802236809143 188.83876876563926 H 0.0 **** 0.06
2899 H 305.6154199737073 255.97554765434356 187.80508991205198 H 0.0 **** 0.06
2900 H 307.2497283993413 255.5663581866708 188.3781267426262 H 0.0 **** 0.06
2901 C 82.2287846310818 80.66388979616201 246.8425913484234 C 0.0 **** -0.24
2902 H 83.2907330378518 80.6682776139308 247.08732932324403 H 0.0 **** 0.06
2903 H 81.65232679273907 80.39422637709106 247.7280727742356 H 0.0 **** 0.06
2904 H 82.04093030151037 79.93863938088165 246.05060590802003 H 0.0 **** 0.06
2905 H 81.9299264046773 81.65649370530679 246.50392249056435 H 0.0 **** 0.06
2906 C 145.67666171033648 107.11083545710056 266.6791788968582 C 0.0 **** -0.24
2907 H 145.2872722692079 106.09414590459741 266.7370889073007 H 0.0 **** 0.06
2908 H 146.7554613687476 107.0784645510754 266.52699883573223 H 0.0 **** 0.06
2909 H 145.45478943946378 107.63776608623601 267.60684864117445 H 0.0 **** 0.06
2910 H 145.20731506348764 107.6315444842906 265.84493661741993 H 0.0 **** 0.06
2911 C 265.3475174439182 255.61292304331067 160.4316325612984 C 0.0 **** -0.24
2912 H 265.37698215447784 256.33197363090324 159.61375883786786 H 0.0 **** 0.06
2913 H 266.3064534965992 255.61318758072812 160.95066717543358 H 0.0 **** 0.06
2914 H 265.1509242019695 254.61752823588284 160.033371812081 H 0.0 **** 0.06
2915 H 264.5566558209477 255.88797151138425 161.12893707158344 H 0.0 **** 0.06
2916 C 201.06668160398317 111.16205653393101 46.79147928599673 C 0.0 **** -0.24
2917 H 202.0232233865304 111.15049669794999 47.31528606771573 H 0.0 **** 0.06
2918 H 200.54262046048797 112.09204765202858 47.01355763120671 H 0.0 **** 0.06
2919 H 200.46302156561921 110.31618182282546 47.11843780832368 H 0.0 **** 0.06
2920 H 201.24184893502235 111.09027883314829 45.71793575228284 H 0.0 **** 0.06
2921 C 80.19405791552992 116.09521827331073 45.72629594285743 C 0.0 **** -0.24
2922 H 81.176471736428 116.35051017254571 46.125385515889775 H 0.0 **** 0.06
2923 H 80.19471214077137 115.05579016749476 45.39997841447362 H 0.0 **** 0.06
2924 H 79.9671267990208 116.74344107672064 44.88012113016268 H 0.0 **** 0.06
2925 H 79.4401524215817 116.23289133273667 46.50167971032212 H 0.0 **** 0.06
2926 C 261.6250254568025 115.51170326527401 10.187893888453289 C 0.0 **** -0.24
2927 H 262.12031032797836 114.7117444557905 10.738342024111603 H 0.0 **** 0.06
2928 H 260.54957111510356 115.45378346763937 10.353633451805479 H 0.0 **** 0.06
2929 H 261.8356235590115 115.40486856995 9.123929539551114 H 0.0 **** 0.06
2930 H 261.9952241459003 116.47523994584526 10.537465545899806 H 0.0 **** 0.06
2931 C 196.62454611370606 106.20697366010995 144.27771253241121 C 0.0 **** -0.24
2932 H 196.948015409692 107.14891739851572 144.72030936558176 H 0.0 **** 0.06
2933 H 197.46597282577625 105.73573747259593 143.77046418060982 H 0.0 **** 0.06
2934 H 195.82773192748954 106.3990792401205 143.5583705039064 H 0.0 **** 0.06
2935 H 196.25500275250988 105.5459103019075 145.0608104092801 H 0.0 **** 0.06
2936 C 43.535078627404744 307.0719290719622 136.4063452869343 C 0.0 **** -0.24
2937 H 42.88080052474771 307.9388165780467 136.5031986294445 H 0.0 **** 0.06
2938 H 43.1681175342097 306.42776445521804 135.60645413274221 H 0.0 **** 0.06
2939 H 43.544658967707505 306.51800176276953 137.34464113561788 H 0.0 **** 0.06
2940 H 44.54562010684131 307.4052083354076 136.1704190271373 H 0.0 **** 0.06
2941 C 227.04764433581343 146.4673047663613 249.26524360478766 C 0.0 **** -0.24
2942 H 226.50502041100094 145.74563667154018 249.8758652446665 H 0.0 **** 0.06
2943 H 226.46605693661144 146.69820790812113 248.3731583045575 H 0.0 **** 0.06
2944 H 228.0103651667214 146.04691478482644 248.9742312068476 H 0.0 **** 0.06
2945 H 227.20834778130433 147.38014249952604 249.84064349601937 H 0.0 **** 0.06
2946 C 302.0181134907074 240.9758497306122 68.41923754421327 C 0.0 **** -0.24
2947 H 301.76925732921256 240.06758092728737 68.96690599863621 H 0.0 **** 0.06
2948 H 301.5525257869774 241.83306720547137 68.9063675519281 H 0.0 **** 0.06
2949 H 301.6496275012613 240.89438915424176 67.3963506478359 H 0.0 **** 0.06
2950 H 303.09980685730284 241.10794254861696 68.40618778823341 H 0.0 **** 0.06
2951 C 105.43566355453049 268.04334933680667 146.79207001785008 C 0.0 **** -0.24
2952 H 105.59868005316844 267.42015033683305 145.91235132364156 H 0.0 **** 0.06
2953 H 105.20264691386296 267.4090065966009 147.64774921389122 H 0.0 **** 0.06
2954 H 104.60439768207621 268.72357350556183 146.60616821522757 H 0.0 **** 0.06
2955 H 106.33755379425762 268.6193212612077 147.00111712042755 H 0.0 **** 0.06
2956 C 75.32510812964404 235.33251424573723 177.75503411551244 C 0.0 **** -0.24
2957 H 76.17110832183732 235.61103720972557 178.3839283724585 H 0.0 **** 0.06
2958 H 75.64516624403245 234.5893809780614 177.02501898033017 H 0.0 **** 0.06
2959 H 74.95275335784311 236.21560381104757 177.2363645763587 H 0.0 **** 0.06
2960 H 74.53265483547943 234.91563333270557 178.37679486693656 H 0.0 **** 0.06
2961 C 178.17132059728704 271.7114750931408 196.58800200414436 C 0.0 **** -0.24
2962 H 178.7733627646939 272.3545344734432 195.94550981349533 H 0.0 **** 0.06
2963 H 177.22844259279861 271.4830523598411 196.09165991342104 H 0.0 **** 0.06
2964 H 177.97217353252654 272.224134809551 197.5299955388855 H 0.0 **** 0.06
2965 H 178.71221804786506 270.78621583297826 196.7849603665543 H 0.0 **** 0.06
2966 C 112.52484920614944 288.22279424886506 266.7703573019156 C 0.0 **** -0.24
2967 H 112.52220753308757 287.2485571452785 266.2825720695713 H 0.0 **** 0.06
2968 H 112.10755884916645 288.96949176368895 266.0942989226671 H 0.0 **** 0.06
2969 H 113.54737902175049 288.4964621813563 267.0289283469932 H 0.0 **** 0.06
2970 H 111.92067711734262 288.1762861758548 267.67717174957465 H 0.0 **** 0.06
2971 C 230.6012751319804 149.67286833921713 272.50440538985583 C 0.0 **** -0.24
2972 H 229.6193150630973 149.4074210615558 272.1128105537995 H 0.0 **** 0.06
2973 H 231.36776732436573 149.10838122613222 271.9722932085404 H 0.0 **** 0.06
2974 H 230.64591595147132 149.43420158406866 273.5670514868579 H 0.0 **** 0.06
2975 H 230.77262469488412 150.73988729994738 272.36367084240055 H 0.0 **** 0.06
2976 C 57.69921871381686 187.18400892704312 179.77848497970803 C 0.0 **** -0.24
2977 H 57.07039412312369 187.81021932689072 179.1462891909835 H 0.0 **** 0.06
2978 H 58.3893415483908 186.61510171252485 179.15516852238676 H 0.0 **** 0.06
2979 H 57.07255121363383 186.49662703665052 180.34736575297967 H 0.0 **** 0.06
2980 H 58.26346069806681 187.814141820742 180.4659687026318 H 0.0 **** 0.06
2981 C 182.54167725519216 9.452922360108943 31.08820260734626 C 0.0 **** -0.24
2982 H 183.41832260406738 8.958153909362608 31.507410749677717 H 0.0 **** 0.06
2983 H 182.1054412322244 10.114862581393496 31.836958662516963 H 0.0 **** 0.06
2984 H 181.80790347857203 8.702140373965321 30.794485387624945 H 0.0 **** 0.06
2985 H 182.8367172470018 10.035390649401293 30.214898279470162 H 0.0 **** 0.06
2986 C 123.9606571195761 157.48322858189118 125.70866537602399 C 0.0 **** -0.24
2987 H 123.29881684432289 157.28198147495556 124.86714687024556 H 0.0 **** 0.06
2988 H 123.49439383772832 158.2122853355483 126.37192713070007 H 0.0 **** 0.06
2989 H 124.90666505382461 157.880766796993 125.33884012921104 H 0.0 **** 0.06
2990 H 124.14533818861284 156.55900634319556 126.25572342026359 H 0.0 **** 0.06
2991 C 21.29258327087868 6.470985504601018 256.1397170836333 C 0.0 **** -0.24
2992 H 21.726331632912007 7.470855954155368 256.1035951048668 H 0.0 **** 0.06
2993 H 21.907779452860666 5.787754114018 255.55451209998256 H 0.0 **** 0.06
2994 H 20.284676631185945 6.497971906521954 255.72627992134872 H 0.0 **** 0.06
2995 H 21.25313033388204 6.12985545617795 257.17397048755936 H 0.0 **** 0.06
2996 C 47.3102830788859 10.694637363778241 241.88881375488683 C 0.0 **** -0.24
2997 H 47.45420649451373 10.151160663633036 240.9547337374613 H 0.0 **** 0.06
2998 H 48.14295634544021 10.486025934683227 242.56151566402787 H 0.0 **** 0.06
2999 H 46.377858745970684 10.375775188478514 242.35379345643656 H 0.0 **** 0.06
3000 H 47.267978764402756 11.764508926161398 241.6828998453726 H 0.0 **** 0.06
3001 C 277.9168815213795 74.58335071894822 97.0860635667124 C 0.0 **** -0.24
3002 H 277.75323078802074 73.75754776907723 97.777378450719 H 0.0 **** 0.06
3003 H 277.5242421640022 75.50361436612948 97.51950849788798 H 0.0 **** 0.06
3004 H 277.40569454290005 74.3772250706752 96.14593036441462 H 0.0 **** 0.06
3005 H 278.98539734152286 74.69564249098434 96.90071024834594 H 0.0 **** 0.06
3006 C 90.73682188420156 81.8473507190796 283.4026823772773 C 0.0 **** -0.24
3007 H 90.62549421635373 82.62764280415098 284.1563837556423 H 0.0 **** 0.06
3008 H 89.76905859428308 81.64567144399189 282.9440844791679 H 0.0 **** 0.06
3009 H 91.11241076149216 80.93924111820695 283.8736996759832 H 0.0 **** 0.06
3010 H 91.4405752387753 82.17852112231469 282.63882785493547 H 0.0 **** 0.06
3011 C 96.56117206060668 81.09843352642508 297.3390170378701 C 0.0 **** -0.24
3012 H 97.20587168334538 80.27119811780003 297.63709475972877 H 0.0 **** 0.06
3013 H 95.79625908106499 80.7335581323151 296.6531472011819 H 0.0 **** 0.06
3014 H 97.15900562812939 81.86398102868128 296.84413988292715 H 0.0 **** 0.06
3015 H 96.08524612578927 81.52432757566135 298.22251186803 H 0.0 **** 0.06
3016 C 76.33643921570868 14.041220422040851 55.065588314879875 C 0.0 **** -0.24
3017 H 76.04441242682941 14.091984740795354 56.1146625209586 H 0.0 **** 0.06
3018 H 77.31221512726759 14.508831363278603 54.93623327854195 H 0.0 **** 0.06
3019 H 75.59787839066217 14.56389405307408 54.45794159833031 H 0.0 **** 0.06
3020 H 76.38877621426874 12.997679444597154 54.75480636910572 H 0.0 **** 0.06
3021 C 255.80199779217205 63.2366034110683 33.01974559674659 C 0.0 **** -0.24
3022 H 256.7783675299436 63.0558642659619 32.56942254662414 H 0.0 **** 0.06
3023 H 255.25104624879287 63.95741108124599 32.414183001200456 H 0.0 **** 0.06
3024 H 255.9335164072952 63.63203782322532 34.0268050926515 H 0.0 **** 0.06
3025 H 255.24538550057247 62.30054547118095 33.06667789377505 H 0.0 **** 0.06
3026 C 277.535694717371 279.577384824241 127.44012793653977 C 0.0 **** -0.24
3027 H 277.2321366191127 279.06754504057227 128.35448575821323 H 0.0 **** 0.06
3028 H 278.62323008865013 279.64758800078476 127.40799255375907 H 0.0 **** 0.06
3029 H 277.1046965164504 280.57778053329406 127.42220252123485 H 0.0 **** 0.06
3030 H 277.18226986893626 279.0131663163251 126.57674406803679 H 0.0 **** 0.06
3031 C 73.74921381050677 74.33668025343391 271.68945263104746 C 0.0 **** -0.24
3032 H 74.2653695687701 73.43937817398464 272.0310775161879 H 0.0 **** 0.06
3033 H 74.47758970362202 75.05125779786113 271.30771733566587 H 0.0 **** 0.06
3034 H 73.20549231258676 74.7819055147558 272.5236592941607 H 0.0 **** 0.06
3035 H 73.04818795761437 74.07320576205782 270.8981857413292 H 0.0 **** 0.06
3036 C 75.93064375679194 211.12405502775465 160.93039942932143 C 0.0 **** -0.24
3037 H 75.007374506541 210.85841353188974 160.4152957134043 H 0.0 **** 0.06
3038 H 75.80327798297893 210.9743655955832 162.0032579430532 H 0.0 **** 0.06
3039 H 76.16793520127098 212.1696256748287 160.73429705363395 H 0.0 **** 0.06
3040 H 76.74192954107798 210.49301214683967 160.5683999740245 H 0.0 **** 0.06
3041 C 108.2496655740114 89.1587289360042 45.31294180022141 C 0.0 **** -0.24
3042 H 109.21697242071693 89.41701875086648 44.88269166003019 H 0.0 **** 0.06
3043 H 108.1731407183185 89.57958554245317 46.31537434760898 H 0.0 **** 0.06
3044 H 108.15268236173642 88.07406317208992 45.36480497877713 H 0.0 **** 0.06
3045 H 107.4547465911356 89.56457273535128 44.68674217233237 H 0.0 **** 0.06
3046 C 10.185760040394783 298.9997688317675 267.3049255707803 C 0.0 **** -0.24
3047 H 10.609748029744907 299.77893300309614 267.9381433277227 H 0.0 **** 0.06
3048 H 9.479159869796774 298.40564013026005 267.8841307445456 H 0.0 **** 0.06
3049 H 10.985318413559483 298.35716082611594 266.93561850169647 H 0.0 **** 0.06
3050 H 9.670109834752935 299.45843686294063 266.460353573159 H 0.0 **** 0.06
3051 C 89.09035005243058 79.88885205186227 223.24658708065036 C 0.0 **** -0.24
3052 H 88.93259308703995 79.80194844815662 222.17132299408314 H 0.0 **** 0.06
3053 H 89.28655770406499 78.90240464691692 223.66558042222672 H 0.0 **** 0.06
3054 H 88.1987284220562 80.31136760675759 223.7111447515101 H 0.0 **** 0.06
3055 H 89.94268212589498 80.54146216851007 223.4358208579751 H 0.0 **** 0.06
3056 C 150.36261177364008 45.5930989845925 294.66926140079124 C 0.0 **** -0.24
3057 H 150.2838529214709 44.530027264726584 294.89722173158145 H 0.0 **** 0.06
3058 H 151.38326741706572 45.82464114936138 294.3637951409087 H 0.0 **** 0.06
3059 H 150.10825976081526 46.17371082953915 295.55575239740654 H 0.0 **** 0.06
3060 H 149.67542857948695 45.843187294607816 293.8613632376943 H 0.0 **** 0.06
3061 C 274.9046678432471 182.16503247272868 278.46059196463017 C 0.0 **** -0.24
3062 H 274.3438675869713 183.09927515263507 278.45957512478356 H 0.0 **** 0.06
3063 H 274.2996061467888 181.37912533204366 278.9125229982407 H 0.0 **** 0.06
3064 H 275.82259648384655 182.2932263769202 279.0352950958865 H 0.0 **** 0.06
3065 H 275.1527058624997 181.88931106163994 277.43613055015504 H 0.0 **** 0.06
3066 C 300.702840808366 136.90665582460502 174.7475271665433 C 0.0 **** -0.24
3067 H 299.8420600953975 137.34251696812487 175.25540607051613 H 0.0 **** 0.06
3068 H 300.5996454179375 137.0493343556612 173.67187624835896 H 0.0 **** 0.06
3069 H 300.7541989303198 135.8413069487307 174.97038241592514 H 0.0 **** 0.06
3070 H 301.6137855904426 137.39466938617164 175.0933099237164 H 0.0 **** 0.06
3071 C 134.5393467982129 22.551378080250885 240.00043903763856 C 0.0 **** -0.24
3072 H 133.55615565482637 22.09502803721344 239.88579976187785 H 0.0 **** 0.06
3073 H 134.7352999348322 22.729719558149185 241.0579758160227 H 0.0 **** 0.06
3074 H 134.56568991030616 23.49723990423024 239.4603744160945 H 0.0 **** 0.06
3075 H 135.2989396856763 21.88173445994161 239.59792144301426 H 0.0 **** 0.06
3076 C 111.42540190450683 6.526505070318123 209.1452795015361 C 0.0 **** -0.24
3077 H 111.05029742973232 7.332251804317423 208.513665547416 H 0.0 **** 0.06
3078 H 111.23610041585482 6.766469411338463 210.19179391312395 H 0.0 **** 0.06
3079 H 112.49743736219693 6.409802138202508 208.98731193581364 H 0.0 **** 0.06
3080 H 110.91711166462338 5.597362538942221 208.88760812521582 H 0.0 **** 0.06
3081 C 138.10575740078767 100.66001471249666 111.69421992519426 C 0.0 **** -0.24
3082 H 137.12075725091597 100.19860187648231 111.76327967126409 H 0.0 **** 0.06
3083 H 138.57720291034602 100.36859634806365 110.75575638439187 H 0.0 **** 0.06
3084 H 138.7216978409581 100.32813094563562 112.52990520595716 H 0.0 **** 0.06
3085 H 138.00104550879604 101.74398488601292 111.72775241603054 H 0.0 **** 0.06
3086 C 148.348855114815 1.11743388822876 34.931064843537 C 0.0 **** -0.24
3087 H 147.7339345814072 0.21744514352509725 34.96591240342991 H 0.0 **** 0.06
3088 H 148.9828643220667 1.0899544465970905 34.04527279572744 H 0.0 **** 0.06
3089 H 148.97207465448662 1.1656486871011538 35.82413991844339 H 0.0 **** 0.06
3090 H 147.70445687908443 1.9953906427030432 34.89065198486111 H 0.0 **** 0.06
3091 C 117.74495683343929 98.35520652586169 214.74612879110623 C 0.0 **** -0.24
3092 H 118.54650731874727 97.6488973300078 214.9622895858887 H 0.0 **** 0.06
3093 H 117.8763466342879 98.75539534295262 213.73966369427777 H 0.0 **** 0.06
3094 H 117.77453351713964 99.17076059880449 215.46879615891757 H 0.0 **** 0.06
3095 H 116.78374774263409 97.8451931011059 214.8117774115167 H 0.0 **** 0.06
3096 C 43.99284288981505 56.473990982587736 227.21924883028817 C 0.0 **** -0.24
3097 H 42.990573026715026 56.46166259615654 227.64800690225636 H 0.0 **** 0.06
3098 H 44.52210390528637 57.36420426048426 227.5595140923094 H 0.0 **** 0.06
3099 H 43.92220589703754 56.48632622081038 226.13087039687142 H 0.0 **** 0.06
3100 H 44.53433797836101 55.584259920126215 227.53823636720603 H 0.0 **** 0.06
3101 C 200.82160550326626 83.69614645213125 189.57857752045555 C 0.0 **** -0.24
3102 H 201.0711400417212 83.12265411047082 190.4710518316685 H 0.0 **** 0.06
3103 H 201.0724001834991 83.11322265504944 188.69189424627046 H 0.0 **** 0.06
3104 H 201.38783974393158 84.62685807313585 189.57388629406876 H 0.0 **** 0.06
3105 H 199.75482912085732 83.91944281668748 189.5770833888223 H 0.0 **** 0.06
3106 C 143.19067357312588 164.13701473371833 257.9962160456222 C 0.0 **** -0.24
3107 H 142.71806707422758 164.60326501515834 258.8604926914232 H 0.0 **** 0.06
3108 H 144.27219516884497 164.12151075819952 258.1385467312312 H 0.0 **** 0.06
3109 H 142.94939170697677 164.70736869812487 257.0994558968201 H 0.0 **** 0.06
3110 H 142.82391284725924 163.11642340934344 257.8877758892726 H 0.0 **** 0.06
3111 C 113.42593622678768 44.73115575971315 162.22799549805046 C 0.0 **** -0.24
3112 H 114.38590691978152 44.639703803607404 161.72170195683765 H 0.0 **** 0.06
3113 H 112.869197526557 45.56692957039246 161.8018845785203 H 0.0 **** 0.06
3114 H 113.58999199150816 44.90764578546407 163.2909542583521 H 0.0 **** 0.06
3115 H 112.85654781610054 43.81100492020386 162.09636867428355 H 0.0 **** 0.06
3116 C 65.61612554521827 84.94489820050364 97.29644044766908 C 0.0 **** -0.24
3117 H 64.57642040462665 84.62105588831943 97.35564967920655 H 0.0 **** 0.06
3118 H 65.69810259980449 85.7782060111081 96.59934490143891 H 0.0 **** 0.06
3119 H 66.2345074382061 84.11679539063965 96.94881431994321 H 0.0 **** 0.06
3120 H 65.9538400837634 85.26103582966246 98.28371054369183 H 0.0 **** 0.06
3121 C 93.16486414567481 256.2784552860631 36.67664005967356 C 0.0 **** -0.24
3122 H 93.50557266792339 257.18407922139767 37.17851090022691 H 0.0 **** 0.06
3123 H 92.6249669288465 256.547589268435 35.7684813470521 H 0.0 **** 0.06
3124 H 92.50332125056383 255.72264300548244 37.34173633864651 H 0.0 **** 0.06
3125 H 94.02417174308528 255.6595250435592 36.41982464950951 H 0.0 **** 0.06
3126 C 129.02388346969366 59.157235732819174 128.4085345398436 C 0.0 **** -0.24
3127 H 128.66363724182463 59.897828628856445 129.1225374581672 H 0.0 **** 0.06
3128 H 128.97050438744736 59.56855571531116 127.40030049081275 H 0.0 **** 0.06
3129 H 128.4038608420539 58.26253944969764 128.46936918796115 H 0.0 **** 0.06
3130 H 130.05656769779122 58.90027791886297 128.64186544530915 H 0.0 **** 0.06
3131 C 173.71559183354424 106.94198307362237 84.68776491863215 C 0.0 **** -0.24
3132 H 173.45244367005046 107.44923453096575 83.75939034202477 H 0.0 **** 0.06
3133 H 173.64270991043367 105.86290615447328 84.54489929326309 H 0.0 **** 0.06
3134 H 173.03115907246774 107.25133035704513 85.47728338007437 H 0.0 **** 0.06
3135 H 174.7359680217353 107.20335502145107 84.96730290755244 H 0.0 **** 0.06
3136 C 82.30226866673851 112.25799797468272 12.222368661235436 C 0.0 **** -0.24
3137 H 81.27604987133722 111.91888381841119 12.358849124432197 H 0.0 **** 0.06
3138 H 82.40254182620777 112.72553119832568 11.24192471262269 H 0.0 **** 0.06
3139 H 82.97850779438855 111.40575921336065 12.288731945361562 H 0.0 **** 0.06
3140 H 82.55219311145558 112.98263652380217 12.997670600803843 H 0.0 **** 0.06
3141 C 86.38539641682192 126.66718616174788 247.30433578947864 C 0.0 **** -0.24
3142 H 87.31641758791011 127.22417474113558 247.19936602646743 H 0.0 **** 0.06
3143 H 85.55113721322286 127.29075399317571 246.9833668040505 H 0.0 **** 0.06
3144 H 86.24685505752873 126.38478780773457 248.34862876446545 H 0.0 **** 0.06
3145 H 86.42834226883764 125.76970031928349 246.68776692591211 H 0.0 **** 0.06
3146 C 227.61901116226426 126.20513045637077 157.02993239788083 C 0.0 **** -0.24
3147 H 226.6705904100586 126.54757027475063 157.44467255816147 H 0.0 **** 0.06
3148 H 228.0684352589012 127.0051053043845 156.44136415631226 H 0.0 **** 0.06
3149 H 227.4456338551306 125.33776550395837 156.39424010489478 H 0.0 **** 0.06
3150 H 228.2924232936014 125.93026664045561 157.84290062747874 H 0.0 **** 0.06
3151 C 105.88125189328613 144.05332190570167 177.5901144579064 C 0.0 **** -0.24
3152 H 106.0271349651382 144.2669350880186 176.53182816293003 H 0.0 **** 0.06
3153 H 105.20310135032932 144.79151379004253 178.0195139663614 H 0.0 **** 0.06
3154 H 106.84025373215064 144.09735474868668 178.1062006242883 H 0.0 **** 0.06
3155 H 105.45313951245578 143.05721143695672 177.70275136940626 H 0.0 **** 0.06
3156 C 19.552993442668992 49.65070741914087 236.3849451309522 C 0.0 **** -0.24
3157 H 20.210878909453427 48.78084972067791 236.39497775531856 H 0.0 **** 0.06
3158 H 18.538350924884938 49.336306897358156 236.13825660689446 H 0.0 **** 0.06
3159 H 19.904705592514418 50.36254564473802 235.63776961154554 H 0.0 **** 0.06
3160 H 19.559891873503233 50.12126149758569 237.36733335048956 H 0.0 **** 0.06
3161 C 72.52048384455728 246.56383739717523 4.905383723996977 C 0.0 **** -0.24
3162 H 71.435753179171 246.51052118493487 4.809905363821372 H 0.0 **** 0.06
3163 H 72.80678773147298 246.3252253136332 5.929218526856857 H 0.0 **** 0.06
3164 H 72.85719311253175 247.57166314338303 4.659940268997275 H 0.0 **** 0.06
3165 H 72.98054319243681 245.85034402013855 4.2217844649332505 H 0.0 **** 0.06
3166 C 216.69890674222546 133.2296635459498 215.83848801166505 C 0.0 **** -0.24
3167 H 217.6626987066756 132.73099008997082 215.9409974424317 H 0.0 **** 0.06
3168 H 216.83629706508498 134.30800339542407 215.92323128064606 H 0.0 **** 0.06
3169 H 216.02761200014893 132.88600744128465 216.6258743232549 H 0.0 **** 0.06
3170 H 216.26849251099742 132.99288908166605 214.8658833700711 H 0.0 **** 0.06
3171 C 292.41635147554643 312.9044072500278 283.3411149526552 C 0.0 **** -0.24
3172 H 291.6532309391012 312.7541925383275 284.1050769538209 H 0.0 **** 0.06
3173 H 293.3370117476074 312.4063320854561 283.64369905665677 H 0.0 **** 0.06
3174 H 292.6021225015345 313.9720138505008 283.2200462684372 H 0.0 **** 0.06
3175 H 292.0704738567337 312.4862169269556 282.39601502420845 H 0.0 **** 0.06
3176 C 140.8280179524775 223.39489047262379 141.84228831162383 C 0.0 **** -0.24
3177 H 140.0040936351729 224.0278029097745 142.1708547629948 H 0.0 **** 0.06
3178 H 140.77375658610092 223.25848635436142 140.7627161900238 H 0.0 **** 0.06
3179 H 140.76045839796717 222.4251950701522 142.3361748229708 H 0.0 **** 0.06
3180 H 141.77517714570553 223.86932042944503 142.1024825405551 H 0.0 **** 0.06
3181 C 212.3239764071473 133.1116395156286 284.75007171210143 C 0.0 **** -0.24
3182 H 213.1721760996989 132.42912857323205 284.8010172115201 H 0.0 **** 0.06
3183 H 212.6830600768431 134.12343555227355 284.5586009470445 H 0.0 **** 0.06
3184 H 211.78378604235996 133.0908192113613 285.69615005508587 H 0.0 **** 0.06
3185 H 211.65749525718758 132.80241241506533 283.9447296554066 H 0.0 **** 0.06
3186 C 84.2830488225078 259.96383710487635 58.22219063804425 C 0.0 **** -0.24
3187 H 83.23323798936627 259.73631663943735 58.03459797647287 H 0.0 **** 0.06
3188 H 84.54631162174562 259.6554764663253 59.233808037827544 H 0.0 **** 0.06
3189 H 84.44554536295325 261.0362130098979 58.114919291856495 H 0.0 **** 0.06
3190 H 84.90384189973693 259.4288485536794 57.50438178490998 H 0.0 **** 0.06
3191 C 230.32945324258176 0.6685575836306441 134.76780305475415 C 0.0 **** -0.24
3192 H 229.4622834557034 0.8073181793486555 135.41375383421754 H 0.0 **** 0.06
3193 H 230.85283944660517 -0.24350606399544006 135.05457323056328 H 0.0 **** 0.06
3194 H 231.00050721437364 1.5216200073799229 134.8731663438983 H 0.0 **** 0.06
3195 H 230.00188058918798 0.5901431750797599 133.7314794160459 H 0.0 **** 0.06
3196 C 70.85265921212445 123.17060815563332 271.7091962651221 C 0.0 **** -0.24
3197 H 69.90397533873528 123.64373719442392 271.9628755339421 H 0.0 **** 0.06
3198 H 70.68622019030073 122.11539954211 271.4909207807131 H 0.0 **** 0.06
3199 H 71.5412706167591 123.2634635865268 272.54930492148685 H 0.0 **** 0.06
3200 H 71.28021141513022 123.65898397059846 270.8341279693343 H 0.0 **** 0.06
3201 C 282.7599914387052 233.21750673791348 276.3560146371771 C 0.0 **** -0.24
3202 H 281.8301482149118 233.7259231700522 276.1008526080807 H 0.0 **** 0.06
3203 H 282.6548645241821 232.14935284185617 276.1645415616258 H 0.0 **** 0.06
3204 H 282.9842702054357 233.3782110027564 277.4109418991392 H 0.0 **** 0.06
3205 H 283.5713669319001 233.61775583796702 275.7479539349171 H 0.0 **** 0.06
3206 C 134.41237462152037 288.59098819269224 258.4344527356583 C 0.0 **** -0.24
3207 H 134.48947892793777 288.0538773355364 257.48880258595574 H 0.0 **** 0.06
3208 H 133.37654875895072 288.5756600556597 258.77587503715495 H 0.0 **** 0.06
3209 H 134.73382689606396 289.6222963087476 258.29389901461053 H 0.0 **** 0.06
3210 H 135.0481914158006 288.1093175383628 259.1774902421374 H 0.0 **** 0.06
3211 C 267.5042144867172 281.78903799342834 230.939010850694 C 0.0 **** -0.24
3212 H 267.2260035019327 281.1965802909224 230.06699773620906 H 0.0 **** 0.06
3213 H 266.62898112210473 282.3231348413001 231.30952193907797 H 0.0 **** 0.06
3214 H 268.27586296138725 282.50616854049383 230.65785473225452 H 0.0 **** 0.06
3215 H 267.8858754574284 281.13088255098876 231.71930160746047 H 0.0 **** 0.06
3216 C 252.19051711970752 309.46193686822755 123.76288763241652 C 0.0 **** -0.24
3217 H 252.10236667093338 310.54155320612244 123.63662038963611 H 0.0 **** 0.06
3218 H 252.12305079643107 309.2138282331165 124.82225053128792 H 0.0 **** 0.06
3219 H 253.15020586371404 309.1271563942511 123.37110211463826 H 0.0 **** 0.06
3220 H 251.3838591016096 308.96671988238177 123.22175517942878 H 0.0 **** 0.06
3221 C 117.43271084577802 64.15266774695522 48.725620535318996 C 0.0 **** -0.24
3222 H 117.54805237152425 65.23628688159971 48.757640146020776 H 0.0 **** 0.06
3223 H 116.50987634365438 63.900286298106835 48.203931515784404 H 0.0 **** 0.06
3224 H 117.39546542501478 63.76144996453576 49.74281706495688 H 0.0 **** 0.06
3225 H 118.28025745896292 63.71407687141755 48.19836145763219 H 0.0 **** 0.06
3226 C 291.71985850591955 140.56967099350825 56.40812403195696 C 0.0 **** -0.24
3227 H 291.12583563230385 140.8541537717182 55.53964851462865 H 0.0 **** 0.06
3228 H 291.43902333895716 139.56565149492 56.72719582359741 H 0.0 **** 0.06
3229 H 291.53728490983815 141.27417631283788 57.219183514474366 H 0.0 **** 0.06
3230 H 292.778205880469 140.58473787353861 56.144690584667785 H 0.0 **** 0.06
3231 C 26.16953033628056 268.7506048442 287.0650300952062 C 0.0 **** -0.24
3232 H 27.067855812344902 268.77090487116766 286.44764480222887 H 0.0 **** 0.06
3233 H 25.9989484911778 269.7401297408283 287.48906861097214 H 0.0 **** 0.06
3234 H 26.29800587005215 268.0267344347219 287.87005743605937 H 0.0 **** 0.06
3235 H 25.314523930956 268.4646180591157 286.4521133330731 H 0.0 **** 0.06
3236 C 56.303864532288 256.5455561263553 197.93103917951805 C 0.0 **** -0.24
3237 H 56.086303165454865 255.70738808992985 197.26951915604326 H 0.0 **** 0.06
3238 H 55.77529917992075 256.4099889792688 198.8743443075208 H 0.0 **** 0.06
3239 H 55.97605161257536 257.4735480848442 197.46080097176645 H 0.0 **** 0.06
3240 H 57.37703263725939 256.5921090719173 198.11783423990835 H 0.0 **** 0.06
3241 C 226.25496542542828 119.31230804175294 65.95669517939422 C 0.0 **** -0.24
3242 H 225.7491049377767 118.35033039150903 66.0428608348953 H 0.0 **** 0.06
3243 H 227.32267573690066 119.14813681166962 65.80805853452438 H 0.0 **** 0.06
3244 H 226.09931675760527 119.88767609771918 66.86840315623914 H 0.0 **** 0.06
3245 H 225.85008887817605 119.86131141317878 65.10641603082087 H 0.0 **** 0.06
3246 C 123.95881783550803 15.077257063040705 58.935900037391065 C 0.0 **** -0.24
3247 H 124.03135185045471 15.517379713592788 57.94115825140352 H 0.0 **** 0.06
3248 H 124.80084532596655 14.406156818229093 59.09905795852421 H 0.0 **** 0.06
3249 H 123.0262449941981 14.517866576129279 59.01672412679426 H 0.0 **** 0.06
3250 H 123.97347798750314 15.86949326433168 59.684591050125704 H 0.0 **** 0.06
3251 C 33.59485617245514 3.6703488939128306 157.6770558109751 C 0.0 **** -0.24
3252 H 33.140901392959904 2.7517032846141944 158.04893032396245 H 0.0 **** 0.06
3253 H 33.00120999443317 4.058558508026934 156.84892365698278 H 0.0 **** 0.06
3254 H 34.60739616679314 3.4602489382145194 157.33158494209357 H 0.0 **** 0.06
3255 H 33.62942262156798 4.4087174857280615 158.47775571134986 H 0.0 **** 0.06
3256 C 165.0564934198497 114.39722512304553 159.55626417184249 C 0.0 **** -0.24
3257 H 164.33949683938334 115.20110434689687 159.72037828797647 H 0.0 **** 0.06
3258 H 165.95388208772732 114.80211150164143 159.0884865014462 H 0.0 **** 0.06
3259 H 164.61414341279107 113.64419179691367 158.9029238029588 H 0.0 **** 0.06
3260 H 165.31711024033842 113.94138884950343 160.51122098369683 H 0.0 **** 0.06
3261 C 124.85673918563575 108.40431295065153 247.3821054948765 C 0.0 **** -0.24
3262 H 124.70306798819524 109.3474320402571 246.85793577554057 H 0.0 **** 0.06
3263 H 124.03711488832286 108.24041834863692 248.08267877918473 H 0.0 **** 0.06
3264 H 125.79921400540337 108.4423197602272 247.928387515982 H 0.0 **** 0.06
3265 H 124.88807823291094 107.58812096877966 246.66070487081993 H 0.0 **** 0.06
3266 C 225.45101578657267 186.82294460772175 156.01073594069896 C 0.0 **** -0.24
3267 H 224.5960503165374 186.3425873736636 156.4863558749641 H 0.0 **** 0.06
3268 H 226.1344133733743 186.05966958955082 155.63788967569013 H 0.0 **** 0.06
3269 H 225.96741862373136 187.4481282321825 156.73992171986418 H 0.0 **** 0.06
3270 H 225.1068522251419 187.44008542868704 155.18139162401593 H 0.0 **** 0.06
3271 C 61.9110537236912 164.5258602220951 142.65981963008105 C 0.0 **** -0.24
3272 H 61.55140169825543 163.5292537909079 142.40425673980837 H 0.0 **** 0.06
3273 H 61.704686871087716 164.7286488908655 143.71056119031445 H 0.0 **** 0.06
3274 H 61.40354541908539 165.2651234769067 142.0396539156265 H 0.0 **** 0.06
3275 H 62.98567969533781 164.57990231324732 142.483216042587 H 0.0 **** 0.06
3276 C 202.49183407582308 271.32606023110384 112.7758378461092 C 0.0 **** -0.24
3277 H 202.97302128525547 270.63524636291464 113.4682433770904 H 0.0 **** 0.06
3278 H 201.4095637644354 271.233711892759 112.86293035079623 H 0.0 **** 0.06
3279 H 202.79722905177164 271.08888875455483 111.75591924311254 H 0.0 **** 0.06
3280 H 202.79033072954297 272.3466218505 113.01601294827611 H 0.0 **** 0.06
3281 C 133.3625750575061 270.0272855937016 13.733944062639225 C 0.0 **** -0.24
3282 H 133.08813429898998 270.2524994063592 12.703578905646964 H 0.0 **** 0.06
3283 H 132.50509505047114 270.19759930757766 14.384006075638723 H 0.0 **** 0.06
3284 H 134.18634103685486 270.6724861791254 14.040166478910493 H 0.0 **** 0.06
3285 H 133.67333817553487 268.9843154283265 13.806551744333959 H 0.0 **** 0.06
3286 C 1.6875722749245199 150.39479369940761 311.8140049254236 C 0.0 **** -0.24
3287 H 0.8747789530955288 150.10768762976278 311.14730299184555 H 0.0 **** 0.06
3288 H 1.6345437051733853 151.46561029709954 312.0110991560781 H 0.0 **** 0.06
3289 H 2.642278839000241 150.1583117336474 311.3442283761858 H 0.0 **** 0.06
3290 H 1.5993344735417736 149.84739155308404 312.7517918548705 H 0.0 **** 0.06
3291 C 210.3617876677264 202.69630408239556 311.68268734169976 C 0.0 **** -0.24
3292 H 211.39571833839133 202.45135528905797 311.9303601439663 H 0.0 **** 0.06
3293 H 209.69143113222964 202.14657808998885 312.34428072425715 H 0.0 **** 0.06
3294 H 210.1610843218675 202.4183312833885 310.6481509051126 H 0.0 **** 0.06
3295 H 210.2011123768068 203.76634510785544 311.8095021641225 H 0.0 **** 0.06
3296 C 295.1229918889785 302.84987467386003 147.15573620908498 C 0.0 **** -0.24
3297 H 294.7514781857757 302.032663333431 147.77290598903403 H 0.0 **** 0.06
3298 H 296.18455189782514 302.99898147885585 147.35148312570723 H 0.0 **** 0.06
3299 H 294.5776051661663 303.76306902346755 147.3941995248488 H 0.0 **** 0.06
3300 H 294.9779998748262 302.60525436701045 146.10353823783169 H 0.0 **** 0.06
3301 C 113.80797176135641 147.79821933311123 51.41437523162446 C 0.0 **** -0.24
3302 H 113.68987812964679 147.88222545504834 52.49427300985403 H 0.0 **** 0.06
3303 H 114.67048334886186 148.38368277870657 51.09676908744186 H 0.0 **** 0.06
3304 H 112.91113055812275 148.17338075631082 50.92075177643588 H 0.0 **** 0.06
3305 H 113.95895304013911 146.7520812822814 51.146512980042075 H 0.0 **** 0.06
3306 C 218.4904184568503 5.876421639669047 109.42180686218202 C 0.0 **** -0.24
3307 H 217.61824316800428 6.5039641278625595 109.23623734763211 H 0.0 **** 0.06
3308 H 218.16929844555176 4.848669747130458 109.58837916278188 H 0.0 **** 0.06
3309 H 219.01844553079974 6.2406565762707515 110.30252001964129 H 0.0 **** 0.06
3310 H 219.1553250624575 5.9142994408729805 108.55897441752941 H 0.0 **** 0.06
3311 C 284.2622793535052 275.66447619821326 36.50365785653537 C 0.0 **** -0.24
3312 H 283.6427734478124 276.46761946477005 36.90343864472959 H 0.0 **** 0.06
3313 H 285.31425985325825 275.90594340288163 36.65868679321227 H 0.0 **** 0.06
3314 H 284.0675825503144 275.5542578577816 35.436454302312825 H 0.0 **** 0.06
3315 H 284.0227966169888 274.73294850951453 37.01510924975571 H 0.0 **** 0.06
3316 C 51.55303048942713 283.19589865457635 284.66482640174513 C 0.0 **** -0.24
3317 H 52.09755040869521 283.0335729149571 283.7351744468586 H 0.0 **** 0.06
3318 H 51.41885250907279 282.2442353020192 285.1780363765078 H 0.0 **** 0.06
3319 H 50.578560649357456 283.63109958224715 284.4438127548785 H 0.0 **** 0.06
3320 H 52.11898428618491 283.8759672926421 285.30244486370606 H 0.0 **** 0.06
3321 C 88.22406415091774 35.94223062609703 278.9991780452901 C 0.0 **** -0.24
3322 H 89.22761312941404 36.24841909954628 279.29379544878316 H 0.0 **** 0.06
3323 H 87.95636778975998 36.426569819104344 278.059985543564 H 0.0 **** 0.06
3324 H 87.5138243631163 36.23244279500162 279.773324472119 H 0.0 **** 0.06
3325 H 88.19795141402679 34.859353706112756 278.87003448353056 H 0.0 **** 0.06
3326 C 26.104998045844752 309.92459543527673 251.41464941065675 C 0.0 **** -0.24
3327 H 25.28957986654899 309.2747144500608 251.73290598928054 H 0.0 **** 0.06
3328 H 25.70756286129503 310.7296224004258 250.7952374180587 H 0.0 **** 0.06
3329 H 26.82705380799598 309.3460242592856 250.8379864041612 H 0.0 **** 0.06
3330 H 26.595166207738316 310.3481206676182 252.29169724512724 H 0.0 **** 0.06
3331 C 267.208660945023 298.1925572013693 48.452297778906626 C 0.0 **** -0.24
3332 H 267.97297177015935 298.5615692373388 47.768834226877374 H 0.0 **** 0.06
3333 H 266.227963726345 298.2859022099948 47.98615399949111 H 0.0 **** 0.06
3334 H 267.2311980768731 298.77729293220114 49.37208446841609 H 0.0 **** 0.06
3335 H 267.4031656985706 297.1444919088499 48.682908705561005 H 0.0 **** 0.06
3336 C 169.6217598960714 94.40284786347101 222.3010809458309 C 0.0 **** -0.24
3337 H 169.2725789408546 94.56273042870006 223.3212150429305 H 0.0 **** 0.06
3338 H 168.76791465313028 94.21548625718412 221.65082386241704 H 0.0 **** 0.06
3339 H 170.29241700952463 93.54363746791762 222.27863358067862 H 0.0 **** 0.06
3340 H 170.15419664565115 95.28931063449707 221.95664196356165 H 0.0 **** 0.06
3341 C 47.60418908383542 42.275492307946934 280.67369934511584 C 0.0 **** -0.24
3342 H 47.068320622616596 42.381289436484394 281.61730430094696 H 0.0 **** 0.06
3343 H 47.99524858033362 41.26100787260418 280.59048783890665 H 0.0 **** 0.06
3344 H 48.429943780872605 42.986999083288936 280.64405743378006 H 0.0 **** 0.06
3345 H 46.92467015964681 42.47262568891858 279.84576951560746 H 0.0 **** 0.06
3346 C 173.7544942107553 116.59188815612572 144.1238620263507 C 0.0 **** -0.24
3347 H 174.02281153149602 116.72599683770866 143.07622515021296 H 0.0 **** 0.06
3348 H 173.67658082632295 115.52727527834165 144.3453485425027 H 0.0 **** 0.06
3349 H 172.7967044354844 117.07497300761233 144.3171962515347 H 0.0 **** 0.06
3350 H 174.52154264284127 117.03957298386203 144.75500015970024 H 0.0 **** 0.06
3351 C 95.50727093495695 78.75871051654701 104.04213737137658 C 0.0 **** -0.24
3352 H 94.61932930740247 78.13542164243114 103.9359018033741 H 0.0 **** 0.06
3353 H 95.41490128653027 79.63349839771718 103.39822948797757 H 0.0 **** 0.06
3354 H 96.38925006751165 78.18673176433248 103.75510346451125 H 0.0 **** 0.06
3355 H 95.60426847630646 79.07951831853165 105.07898122548724 H 0.0 **** 0.06
3356 C 139.39168908446393 48.601506234400176 288.09496006970494 C 0.0 **** -0.24
3357 H 140.13645900958076 49.38296232937017 287.9468132620485 H 0.0 **** 0.06
3358 H 138.9563342128414 48.698255270450204 289.0894579877014 H 0.0 **** 0.06
3359 H 139.8653433516519 47.62506747178651 287.99820613615094 H 0.0 **** 0.06
3360 H 138.60725521321706 48.70003468591017 287.3443376629532 H 0.0 **** 0.06
3361 C 65.83607009981137 302.00602175969436 41.40904736731852 C 0.0 **** -0.24
3362 H 66.38459043460605 301.36865682806035 42.10276325822579 H 0.0 **** 0.06
3363 H 65.0494766768714 302.53482704206937 41.94681600513178 H 0.0 **** 0.06
3364 H 65.39267019172877 301.39240562062133 40.625798301829064 H 0.0 **** 0.06
3365 H 66.52042119117331 302.7271515638491 40.96208569175914 H 0.0 **** 0.06
3366 C 12.990539820147063 237.8676719648911 156.2008141235341 C 0.0 **** -0.24
3367 H 13.411964177395902 238.66846414600704 155.5933696877134 H 0.0 **** 0.06
3368 H 11.967039842160489 238.12250616427102 156.47806614155724 H 0.0 **** 0.06
3369 H 13.59050028099223 237.74093275553912 157.10117625163275 H 0.0 **** 0.06
3370 H 12.992077543059636 236.93894757529588 155.62901958025384 H 0.0 **** 0.06
3371 C 282.28478777559945 85.79363497797553 203.52121757453688 C 0.0 **** -0.24
3372 H 281.42532979999925 85.22813433920155 203.16170628975482 H 0.0 **** 0.06
3373 H 282.24500360871053 85.86252525187118 204.60848833285678 H 0.0 **** 0.06
3374 H 282.2662070348672 86.79566718888552 203.0930148739111 H 0.0 **** 0.06
3375 H 283.20358542265666 85.28837887230813 203.22267192703828 H 0.0 **** 0.06
3376 C 6.975983227583569 11.474514027678879 21.567970694190535 C 0.0 **** -0.24
3377 H 7.114773731439115 12.518908547678507 21.847467801064425 H 0.0 **** 0.06
3378 H 6.28841967669716 11.41213713674074 20.725470350314723 H 0.0 **** 0.06
3379 H 6.565436381304281 10.923654691363367 22.414472100334024 H 0.0 **** 0.06
3380 H 7.937028200879922 11.043950697518369 21.28576486443086 H 0.0 **** 0.06
3381 C 274.4400843723127 162.36644224754622 100.37115845994884 C 0.0 **** -0.24
3382 H 274.2274531814234 161.3684797256027 99.98805908574442 H 0.0 **** 0.06
3383 H 275.49678956776836 162.43840251830125 100.6302939517519 H 0.0 **** 0.06
3384 H 273.83515483289926 162.5515309014558 101.2598185753132 H 0.0 **** 0.06
3385 H 274.20176285352903 163.10691182095445 99.60849339034453 H 0.0 **** 0.06
3386 C 299.017321774793 260.47767001889656 105.12200683707101 C 0.0 **** -0.24
3387 H 298.1160959751745 260.8678481827789 104.64823008361506 H 0.0 **** 0.06
3388 H 298.83679328435755 259.45781148789746 105.46199858947679 H 0.0 **** 0.06
3389 H 299.27946556566695 261.1041686637805 105.97562644722476 H 0.0 **** 0.06
3390 H 299.8358894249742 260.48263706855613 104.40302375275235 H 0.0 **** 0.06
3391 C 19.84777490235456 80.40238965037068 212.21778011149516 C 0.0 **** -0.24
3392 H 20.549060235798265 80.92077929674724 212.87225196649695 H 0.0 **** 0.06
3393 H 19.401338618448563 81.1163021404353 211.5254196909409 H 0.0 **** 0.06
3394 H 19.06540387328539 79.93977323109226 212.8191185933298 H 0.0 **** 0.06
3395 H 20.377519506915007 79.63229821817689 211.65603177369115 H 0.0 **** 0.06
3396 C 112.64284310162088 19.249915263199227 222.81636310603534 C 0.0 **** -0.24
3397 H 111.83140562447511 18.52396743596921 222.8481013364717 H 0.0 **** 0.06
3398 H 113.10903646039122 19.231223658168688 221.83130030307586 H 0.0 **** 0.06
3399 H 113.3850898883245 18.99978900693344 223.574863545528 H 0.0 **** 0.06
3400 H 112.24601708967998 20.24598304653216 223.01171006852306 H 0.0 **** 0.06
3401 C 176.67401085648373 175.93330542409365 235.68967746462536 C 0.0 **** -0.24
3402 H 177.5148636289669 175.30498070263644 235.3946299890414 H 0.0 **** 0.06
3403 H 175.91523049193387 175.31994206465447 236.17470642625338 H 0.0 **** 0.06
3404 H 176.2487315432096 176.40781393759067 234.80553181791103 H 0.0 **** 0.06
3405 H 177.02006847263493 176.6998395371466 236.3831656984581 H 0.0 **** 0.06
3406 C 143.38342909157268 217.33594924235547 74.07349755689592 C 0.0 **** -0.24
3407 H 143.19077026424057 218.39074702320698 73.87935697749907 H 0.0 **** 0.06
3408 H 144.05409693528074 217.24153583915103 74.92807236738793 H 0.0 **** 0.06
3409 H 143.84445613573254 216.88318740049937 73.19625008636655 H 0.0 **** 0.06
3410 H 142.4427681674372 216.83015000092786 74.2920530524749 H 0.0 **** 0.06
3411 C 183.60984230302216 28.586965826276128 117.11361598309392 C 0.0 **** -0.24
3412 H 183.95743243245397 27.759820556022134 116.4942080752945 H 0.0 **** 0.06
3413 H 183.00725705609858 29.265360461170758 116.50837215087529 H 0.0 **** 0.06
3414 H 184.4687669075792 29.125252205771545 117.51621088365715 H 0.0 **** 0.06
3415 H 183.007195899745 28.198700615371592 117.93435393520903 H 0.0 **** 0.06
3416 C 132.13336510027847 108.42153768377199 308.9805563400653 C 0.0 **** -0.24
3417 H 132.41295967719935 108.0253153339994 309.95601626526275 H 0.0 **** 0.06
3418 H 132.83055088804298 108.05608511385933 308.22608185420444 H 0.0 **** 0.06
3419 H 132.16587758208013 109.51081117724956 309.00764039068844 H 0.0 **** 0.06
3420 H 131.1235288994952 108.09465315903739 308.73100532603854 H 0.0 **** 0.06
3421 C 33.41113566989685 149.92849548094307 53.844822478407224 C 0.0 **** -0.24
3422 H 32.880141695193004 149.20708473809748 53.223888272409255 H 0.0 **** 0.06
3423 H 32.877761647078245 150.05779143107253 54.787105378340385 H 0.0 **** 0.06
3424 H 33.46750600022142 150.88369068843696 53.32437666576911 H 0.0 **** 0.06
3425 H 34.41900786365869 149.56323461313428 54.045028609289545 H 0.0 **** 0.06
3426 C 206.0668673355434 165.866777197455 218.11742235455173 C 0.0 **** -0.24
3427 H 207.12419805144594 166.12339638541937 218.06031986042507 H 0.0 **** 0.06
3428 H 205.78438103184072 165.29040548392828 217.23588988747488 H 0.0 **** 0.06
3429 H 205.47308358432082 166.77882783868813 218.1609174861032 H 0.0 **** 0.06
3430 H 205.88560304527982 165.2724123389388 219.0133911182414 H 0.0 **** 0.06
3431 C 297.6011885511629 162.79923425265548 17.540407772675323 C 0.0 **** -0.24
3432 H 296.6781204231462 162.42143739227055 17.979715309369155 H 0.0 **** 0.06
3433 H 297.7321731395019 162.37005812834735 16.54680662327533 H 0.0 **** 0.06
3434 H 298.4447270693281 162.51894122298472 18.171437040465506 H 0.0 **** 0.06
3435 H 297.5501755434447 163.88560334301843 17.46368603443713 H 0.0 **** 0.06
3436 C 129.80122552218967 268.35194231849187 191.20847303014983 C 0.0 **** -0.24
3437 H 129.29154403092406 269.2418253709595 191.57992866314754 H 0.0 **** 0.06
3438 H 130.8716742178779 268.5476798529048 191.14329052557133 H 0.0 **** 0.06
3439 H 129.41651185273065 268.0988789574974 190.22105383192587 H 0.0 **** 0.06
3440 H 129.62394964494095 267.5209070384474 191.89109882533842 H 0.0 **** 0.06
3441 C 28.95167201185228 181.00462468098783 301.84297766053487 C 0.0 **** -0.24
3442 H 28.22058822426959 180.21950985231575 302.03305539829734 H 0.0 **** 0.06
3443 H 28.823704932534213 181.80432483511078 302.57215832250216 H 0.0 **** 0.06
3444 H 28.80416340098259 181.40208537652074 300.83825901331096 H 0.0 **** 0.06
3445 H 29.957361256874577 180.59359586109645 301.92594631558154 H 0.0 **** 0.06
3446 C 305.97602801998374 246.0567318852363 191.00278159997038 C 0.0 **** -0.24
3447 H 306.0761890490279 245.14910146947332 191.598435987142 H 0.0 **** 0.06
3448 H 305.09784371040456 246.6121510324361 191.3318001991313 H 0.0 **** 0.06
3449 H 305.8659730501784 245.7909163222808 189.95143896314687 H 0.0 **** 0.06
3450 H 306.8650816973176 246.67374914487678 191.12962246906164 H 0.0 **** 0.06
3451 C 163.01296656501216 139.06445049901495 220.36303614073742 C 0.0 **** -0.24
3452 H 163.33375795583584 138.94854487537614 221.3984143909608 H 0.0 **** 0.06
3453 H 161.94067943963006 139.2583512383831 220.3352481171495 H 0.0 **** 0.06
3454 H 163.23095953441123 138.148814443893 219.81223124318217 H 0.0 **** 0.06
3455 H 163.54673889458854 139.89785448722532 219.90824472207896 H 0.0 **** 0.06
3456 C 140.65851762799127 205.08656584112157 266.706619300075 C 0.0 **** -0.24
3457 H 139.92873596268706 204.70943295346513 267.4230652896567 H 0.0 **** 0.06
3458 H 141.111899860136 205.9985185030357 267.09621684624665 H 0.0 **** 0.06
3459 H 140.1608249121 205.30318530986773 265.76141968311657 H 0.0 **** 0.06
3460 H 141.43207940104946 204.3355914087827 266.54700121216473 H 0.0 **** 0.06
3461 C 256.7795702823723 240.5626237380194 95.86131640142125 C 0.0 **** -0.24
3462 H 256.083043192052 241.3268476968629 96.20692471369341 H 0.0 **** 0.06
3463 H 256.9263219548341 239.82228777947765 96.648066023181 H 0.0 **** 0.06
3464 H 257.7346529951151 241.02617598180694 95.61592146392675 H 0.0 **** 0.06
3465 H 256.3735062523503 240.0757967788349 94.97457976313984 H 0.0 **** 0.06
3466 C 202.6825249521197 100.22433746918253 81.16077293068224 C 0.0 **** -0.24
3467 H 202.0416526741119 100.34374718637403 80.28757055450453 H 0.0 **** 0.06
3468 H 203.72707763859967 100.2402185004392 80.84815841996118 H 0.0 **** 0.06
3469 H 202.46246217603925 99.27343327624268 81.64620875675885 H 0.0 **** 0.06
3470 H 202.4996808465167 101.03963132602689 81.86060670314743 H 0.0 **** 0.06
3471 C 295.4561863057406 190.27367045799116 12.664017645681966 C 0.0 **** -0.24
3472 H 295.85153408638837 191.21239969638896 13.050740924777529 H 0.0 **** 0.06
3473 H 295.83016356461957 190.11094393731338 11.652455266991268 H 0.0 **** 0.06
3474 H 294.36724483554553 190.31694053329687 12.647090615877005 H 0.0 **** 0.06
3475 H 295.7772741750163 189.4524461110925 13.305621500859743 H 0.0 **** 0.06
3476 C 55.59573093979611 282.5590604613842 175.82638465675387 C 0.0 **** -0.24
3477 H 56.55723768066335 282.7067032456482 176.3191571702298 H 0.0 **** 0.06
3478 H 55.72424844596162 282.6496959781631 174.74746306238075 H 0.0 **** 0.06
3479 H 54.8910029054266 283.31498765318224 176.17339017532225 H 0.0 **** 0.06
3480 H 55.2135377821256 281.56752781765624 176.06600466832657 H 0.0 **** 0.06
3481 C 235.28387242846878 308.95103485945606 60.483440048204585 C 0.0 **** -0.24
3482 H 235.57134764397046 308.1556538103432 61.170810643694836 H 0.0 **** 0.06
3483 H 236.07850228907415 309.10422726395063 59.75290132645057 H 0.0 **** 0.06
3484 H 235.11900549340396 309.8725927422564 61.04182012747316 H 0.0 **** 0.06
3485 H 234.36480177787257 308.670046370403 59.96808680695125 H 0.0 **** 0.06
3486 C 171.78958262103936 208.67829000044333 68.50320951457672 C 0.0 **** -0.24
3487 H 171.40525759177183 208.10226878483093 69.3443588331836 H 0.0 **** 0.06
3488 H 172.01780990974083 209.69211099009524 68.83139033884487 H 0.0 **** 0.06
3489 H 171.03940120147013 208.71177247567272 67.71323602714392 H 0.0 **** 0.06
3490 H 172.69555566281235 208.20566869093523 68.12418933830156 H 0.0 **** 0.06
3491 C 206.0086762218183 134.8990002813535 151.76904092353772 C 0.0 **** -0.24
3492 H 206.97120570715555 134.48401257497838 152.0657386435713 H 0.0 **** 0.06
3493 H 206.16953047390763 135.7937291082096 151.16700638189815 H 0.0 **** 0.06
3494 H 205.43476423352712 135.15751561464586 152.6585425812142 H 0.0 **** 0.06
3495 H 205.4602370547774 134.16115096467863 151.18293494447494 H 0.0 **** 0.06
3496 C 18.936779978801383 67.1288324392089 215.25878332669708 C 0.0 **** -0.24
3497 H 19.025589862346976 66.85650314777345 214.20685703945557 H 0.0 **** 0.06
3498 H 19.271682998491542 66.29630810811977 215.87829084056494 H 0.0 **** 0.06
3499 H 17.895602134109254 67.35761527981364 215.48800911335294 H 0.0 **** 0.06
3500 H 19.55426984622511 68.00404619318076 215.4614616423593 H 0.0 **** 0.06
3501 C 21.07107820557667 274.72829259848857 170.9835622994172 C 0.0 **** -0.24
3502 H 21.000961399111958 273.97287659128085 171.76582097576852 H 0.0 **** 0.06
3503 H 20.11879499916428 274.7946484060612 170.456449450025 H 0.0 **** 0.06
3504 H 21.857092001369267 274.45109135353647 170.28045694694652 H 0.0 **** 0.06
3505 H 21.306810171581276 275.69350459372623 171.43083580700397 H 0.0 **** 0.06
3506 C 5.184391044799952 198.49368913657628 308.4491287930161 C 0.0 **** -0.24
3507 H 4.541043831566569 199.37373901204194 308.45359323179997 H 0.0 **** 0.06
3508 H 5.211542032189314 198.0587137441757 309.44763496558875 H 0.0 **** 0.06
3509 H 6.192629094824767 198.7830415418686 308.1507287671808 H 0.0 **** 0.06
3510 H 4.792844016545075 197.76134979645792 307.74392785691407 H 0.0 **** 0.06
3511 C 167.63181984947488 304.58760752641746 142.92410461436933 C 0.0 **** -0.24
3512 H 166.6219940206999 304.27906630211413 143.19589214460476 H 0.0 **** 0.06
3513 H 167.76109897437448 304.4980600732973 141.84618369663687 H 0.0 **** 0.06
3514 H 168.35459055406153 303.94927680105206 143.43246643871885 H 0.0 **** 0.06
3515 H 167.78720356065634 305.6234843692399 143.22533777647504 H 0.0 **** 0.06
3516 C 196.84348584738177 214.3729525822597 161.2166135477579 C 0.0 **** -0.24
3517 H 197.4344346045263 213.93345719033317 162.01968434988532 H 0.0 **** 0.06
3518 H 196.194790179339 213.6114497039552 160.78483855760146 H 0.0 **** 0.06
3519 H 197.5100006036672 214.7625425449022 160.4462856327961 H 0.0 **** 0.06
3520 H 196.23554618557887 215.1846310775291 161.61613668544265 H 0.0 **** 0.06
3521 C 278.684901991222 46.479591459050795 140.94801284436025 C 0.0 **** -0.24
3522 H 278.02840825788616 46.589958608696406 141.81157779498332 H 0.0 **** 0.06
3523 H 279.72204118772135 46.44649168383279 141.2823046984584 H 0.0 **** 0.06
3524 H 278.5459945741008 47.32694622087996 140.27538739558074 H 0.0 **** 0.06
3525 H 278.44151301943936 45.55546200461035 140.42295959607242 H 0.0 **** 0.06
3526 C 179.90457522237386 35.41695464891248 13.387578300983861 C 0.0 **** -0.24
3527 H 179.965398453307 34.79973338054694 14.28462110709917 H 0.0 **** 0.06
3528 H 180.04722302564818 36.46383324919074 13.657222797561388 H 0.0 **** 0.06
3529 H 178.92548820970222 35.290795824361396 12.925131629662204 H 0.0 **** 0.06
3530 H 180.68097204058398 35.114315365284 12.684966178709644 H 0.0 **** 0.06
3531 C 312.80502303391205 70.94122941124104 191.26456509688376 C 0.0 **** -0.24
3532 H 311.88552030081263 70.40068848460112 191.48595970840415 H 0.0 **** 0.06
3533 H 312.5824524963946 72.00248119610524 191.1462335181896 H 0.0 **** 0.06
3534 H 313.23986709094254 70.55649036920008 190.34210053641578 H 0.0 **** 0.06
3535 H 313.5111626712146 70.80743532618374 192.0837014120017 H 0.0 **** 0.06
3536 C 146.134401675313 186.50180402170463 83.29218774936717 C 0.0 **** -0.24
3537 H 145.40877877499247 187.0563264350023 82.69663787544556 H 0.0 **** 0.06
3538 H 146.74921241810335 187.2017328196764 83.85906761618821 H 0.0 **** 0.06
3539 H 146.76875129502665 185.91034992588135 82.63260003062842 H 0.0 **** 0.06
3540 H 145.6080070925299 185.84045499414327 83.98009803062772 H 0.0 **** 0.06
3541 C 87.06980028198842 307.4626284222074 30.378904776130298 C 0.0 **** -0.24
3542 H 86.89068357922343 307.5845217298455 31.446957947267038 H 0.0 **** 0.06
3543 H 87.98428571045721 307.9862434257896 30.101742232919946 H 0.0 **** 0.06
3544 H 86.2296888492236 307.875962777841 29.820716777871667 H 0.0 **** 0.06
3545 H 87.17293895246564 306.4023936782298 30.1474224804075 H 0.0 **** 0.06
3546 C 267.99976117468196 221.24203446824845 47.2409359703625 C 0.0 **** -0.24
3547 H 268.48424973823666 221.919396316477 46.53765927624542 H 0.0 **** 0.06
3548 H 268.4164752763254 221.39342283990237 48.237081176563265 H 0.0 **** 0.06
3549 H 268.170986752191 220.21143420189276 46.92753487014366 H 0.0 **** 0.06
3550 H 266.92954982860334 221.4431054491435 47.25960349370263 H 0.0 **** 0.06
3551 C 25.500137095330388 186.6316422806148 170.95305337405858 C 0.0 **** -0.24
3552 H 26.16804449904339 186.23808753136433 171.7195973789784 H 0.0 **** 0.06
3553 H 25.99406775888872 187.45023781500277 170.4280560333421 H 0.0 **** 0.06
3554 H 24.58690382580113 186.99740685009687 171.42027881853193 H 0.0 **** 0.06
3555 H 25.254589045747366 185.84015098295106 170.24471233134187 H 0.0 **** 0.06
3556 C 67.61067669846503 201.11402797273962 48.714185106359395 C 0.0 **** -0.24
3557 H 68.30564201771116 200.63035391570412 49.4005035170494 H 0.0 **** 0.06
3558 H 68.16718273458432 201.5608715450213 47.88926255753884 H 0.0 **** 0.06
3559 H 67.05887791084933 201.89014624864365 49.24301765314806 H 0.0 **** 0.06
3560 H 66.91260138547179 200.3734805715162 48.323028160022375 H 0.0 **** 0.06
3561 C 143.8681699915566 58.87120925654253 143.83986810967912 C 0.0 **** -0.24
3562 H 144.54022967990338 58.639317842053345 143.01313447613288 H 0.0 **** 0.06
3563 H 144.23205934589683 59.75276259001268 144.36778724046775 H 0.0 **** 0.06
3564 H 143.83213888850233 58.025157098851366 144.52569596937693 H 0.0 **** 0.06
3565 H 142.86868350725194 59.06695616601186 143.45222231436978 H 0.0 **** 0.06
3566 C 123.38043081197728 220.29167369931125 79.36925161560504 C 0.0 **** -0.24
3567 H 123.0685298083956 221.18326073329484 79.91399437927836 H 0.0 **** 0.06
3568 H 123.72356948479535 220.57650399766078 78.37355140361524 H 0.0 **** 0.06
3569 H 122.53726569707891 219.60643048118303 79.28150954281264 H 0.0 **** 0.06
3570 H 124.19187757859083 219.8029012910794 79.90792315298492 H 0.0 **** 0.06
3571 C 164.86625961697837 0.045352879885683706 288.80922105334605 C 0.0 **** -0.24
3572 H 164.98716384819 -0.49612816473259613 287.8711449403349 H 0.0 **** 0.06
3573 H 165.22692814267657 1.0669450045740092 288.6888420857846 H 0.0 **** 0.06
3574 H 165.43821862268828 -0.45276649381330003 289.5925436807864 H 0.0 **** 0.06
3575 H 163.81114430878904 0.062357865742527 289.085050482056 H 0.0 **** 0.06
3576 C 308.47391402552137 307.05641840136013 181.58997961110094 C 0.0 **** -0.24
3577 H 308.44753391278664 308.00793284924686 182.12018682622698 H 0.0 **** 0.06
3578 H 308.151895832209 307.2057307398054 180.55931746500784 H 0.0 **** 0.06
3579 H 307.80673037841797 306.3480041944948 182.08084277097362 H 0.0 **** 0.06
3580 H 309.4910118314344 306.66332319653577 181.60068324146476 H 0.0 **** 0.06
3581 C 163.0982341201675 217.29569700381896 101.1569948478099 C 0.0 **** -0.24
3582 H 162.03109691008285 217.10890225774654 101.28060816210092 H 0.0 **** 0.06
3583 H 163.47358803424862 216.71176536175955 100.31561286908223 H 0.0 **** 0.06
3584 H 163.62503382518412 217.00610796239 102.06553026375619 H 0.0 **** 0.06
3585 H 163.26042306056343 218.35634121648098 100.96376194691516 H 0.0 **** 0.06
3586 C 135.1246270406984 30.882488838366697 32.97306404800506 C 0.0 **** -0.24
3587 H 135.18189015233145 31.962018479321216 32.83544487043142 H 0.0 **** 0.06
3588 H 134.3254069680245 30.478906327930588 32.350888200280394 H 0.0 **** 0.06
3589 H 134.91826544348544 30.660854036705018 34.020509158351246 H 0.0 **** 0.06
3590 H 136.07373772272746 30.429467196662927 32.68625460563209 H 0.0 **** 0.06
3591 C 158.69555265981927 262.7089430625944 48.05968392162089 C 0.0 **** -0.24
3592 H 158.83231884854746 261.87558684698917 47.36955075792096 H 0.0 **** 0.06
3593 H 157.9323663074208 262.45092037067707 48.79332567896134 H 0.0 **** 0.06
3594 H 158.381788205043 263.59237119929276 47.502940760419136 H 0.0 **** 0.06
3595 H 159.63612234927592 262.9158452877403 48.57013419163974 H 0.0 **** 0.06
3596 C 269.4102025992539 224.17295210142794 246.71647641548205 C 0.0 **** -0.24
3597 H 268.8513858321139 223.38289190021916 246.21447636483504 H 0.0 **** 0.06
3598 H 269.03933940077513 225.14439153981445 246.3897268859668 H 0.0 **** 0.06
3599 H 270.4678674398475 224.08398225694444 246.4679833518714 H 0.0 **** 0.06
3600 H 269.2824361749928 224.07920061364348 247.79518571465627 H 0.0 **** 0.06
3601 C 146.35171303918392 20.266638625963267 139.05108391706335 C 0.0 **** -0.24
3602 H 146.87895362299406 20.50561410011497 138.12770835006418 H 0.0 **** 0.06
3603 H 145.833001586442 21.154174815543 139.4143569463882 H 0.0 **** 0.06
3604 H 147.06750303322426 19.930743475161535 139.8017033175107 H 0.0 **** 0.06
3605 H 145.62716661373355 19.474334802873983 138.8608853819342 H 0.0 **** 0.06
3606 C 233.9414819436734 98.48232819111274 149.8289111577796 C 0.0 **** -0.24
3607 H 233.9593860843621 97.57351586719312 150.43088952449426 H 0.0 **** 0.06
3608 H 233.6641311785475 99.32936351671964 150.45816315048336 H 0.0 **** 0.06
3609 H 233.2111079803771 98.37177581454603 149.02713413293372 H 0.0 **** 0.06
3610 H 234.928310568125 98.65482838767872 149.40146257611173 H 0.0 **** 0.06
3611 C 270.8375888632003 20.426729163760953 192.09904123368875 C 0.0 **** -0.24
3612 H 270.684337201486 19.523556097017774 192.68840333178008 H 0.0 **** 0.06
3613 H 271.20778785487875 21.223115238623762 192.74403059220958 H 0.0 **** 0.06
3614 H 269.8922840148289 20.73216263482506 191.65019995945863 H 0.0 **** 0.06
3615 H 271.5651811456299 20.22788664073208 191.31235802542687 H 0.0 **** 0.06
3616 C 276.4666782287784 218.38020256002983 247.55748583088942 C 0.0 **** -0.24
3617 H 276.61582338121775 217.61134207286258 248.31601706141367 H 0.0 **** 0.06
3618 H 276.6891939540023 217.96754795322823 246.57372047514986 H 0.0 **** 0.06
3619 H 277.131222224668 219.2205923369753 247.75823854096365 H 0.0 **** 0.06
3620 H 275.4319851699502 218.72045949547754 247.58440863297312 H 0.0 **** 0.06
3621 C 247.1339041672172 10.146235125285656 134.66015958017653 C 0.0 **** -0.24
3622 H 247.4168663015578 10.096330125196516 133.60785911001344 H 0.0 **** 0.06
3623 H 246.37579112348004 10.918163190809437 134.79425665960204 H 0.0 **** 0.06
3624 H 248.01004694003956 10.387448936265343 135.2615355741164 H 0.0 **** 0.06
3625 H 246.73203669305457 9.182635186745273 134.97397010164383 H 0.0 **** 0.06
3626 C 83.89875128679017 85.26734754275063 6.024109438820361 C 0.0 **** -0.24
3627 H 83.77287073222016 85.13546225196453 7.098919983797813 H 0.0 **** 0.06
3628 H 84.17353712121363 84.31467313518706 5.570606879536186 H 0.0 **** 0.06
3629 H 84.68605893316723 85.99895736906478 5.8379050095376215 H 0.0 **** 0.06
3630 H 82.96373445687695 85.62106738173821 5.589994071663725 H 0.0 **** 0.06
3631 C 216.49233195696183 68.72255791005091 14.077652842553391 C 0.0 **** -0.24
3632 H 217.25529675607385 68.45677074967381 14.809895462451664 H 0.0 **** 0.06
3633 H 215.75419405466957 69.37552608929562 14.54341924780816 H 0.0 **** 0.06
3634 H 216.00139447712957 67.81631918945826 13.719871999004809 H 0.0 **** 0.06
3635 H 216.9583435986558 69.23894466701569 13.238350026134327 H 0.0 **** 0.06
3636 C 117.64566011349734 275.47855147778114 234.6712379242041 C 0.0 **** -0.24
3637 H 118.72905943338534 275.55049237925243 234.57969139649117 H 0.0 **** 0.06
3638 H 117.18513199248412 276.36614495116976 234.23761363411376 H 0.0 **** 0.06
3639 H 117.37426016878652 275.4050969324846 235.72394721260736 H 0.0 **** 0.06
3640 H 117.29571239528394 274.5919007326405 234.14253630631197 H 0.0 **** 0.06
3641 C 250.261544149381 103.21505876787765 219.29291314307278 C 0.0 **** -0.24
3642 H 249.36266623604607 102.60445522516477 219.20911481787397 H 0.0 **** 0.06
3643 H 250.2533892990424 103.9806652633986 218.51628611027124 H 0.0 **** 0.06
3644 H 251.14205261923604 102.58378072752876 219.1729080569102 H 0.0 **** 0.06
3645 H 250.28690004791986 103.69161974236124 220.27259986004628 H 0.0 **** 0.06
3646 C 245.82511556268054 244.7766510385486 142.05116211263947 C 0.0 **** -0.24
3647 H 246.56988173010078 244.01855610813328 141.8086795717303 H 0.0 **** 0.06
3648 H 246.1099149273315 245.28159299771073 142.97444825011695 H 0.0 **** 0.06
3649 H 244.85294536014783 244.3013197978392 142.18062507090045 H 0.0 **** 0.06
3650 H 245.76916860876693 245.50316026619663 141.24093644819817 H 0.0 **** 0.06
3651 C 186.2404509235351 26.443565843452348 44.21333544442339 C 0.0 **** -0.24
3652 H 187.21892166074377 26.377532097270773 43.739581391982625 H 0.0 **** 0.06
3653 H 185.5406830131377 25.78440663729984 43.69733799007227 H 0.0 **** 0.06
3654 H 185.8791989715097 27.470911464521322 44.15981577383974 H 0.0 **** 0.06
3655 H 186.32162959543655 26.140564241232482 45.258156199861105 H 0.0 **** 0.06
3656 C 26.60448116184176 37.20365497704793 4.870513427616402 C 0.0 **** -0.24
3657 H 26.202265316284752 37.794725923212695 4.048449625438764 H 0.0 **** 0.06
3658 H 27.093290873423143 37.86367435227146 5.5867157994712215 H 0.0 **** 0.06
3659 H 27.329199703770314 36.48734694925423 4.482720703440748 H 0.0 **** 0.06
3660 H 25.79223568330633 36.66864213892475 5.363891478852565 H 0.0 **** 0.06
3661 C 60.71664273973923 144.29672321511012 43.24741079023579 C 0.0 **** -0.24
3662 H 61.376691533519136 143.65480196745742 43.82965132936792 H 0.0 **** 0.06
3663 H 59.935034404762405 143.69268872736941 42.78714445857773 H 0.0 **** 0.06
3664 H 61.29246179329698 144.7996244187316 42.469913426352235 H 0.0 **** 0.06
3665 H 60.26369509507552 145.04158617565344 43.902841150960626 H 0.0 **** 0.06
3666 C 78.5039060537245 296.7241857615647 272.5830736741086 C 0.0 **** -0.24
3667 H 78.80786261792346 296.266462301404 271.64135078815866 H 0.0 **** 0.06
3668 H 79.23505098588706 297.47820381278825 272.8735650058844 H 0.0 **** 0.06
3669 H 78.44549202694785 295.95728169150067 273.35639398638705 H 0.0 **** 0.06
3670 H 77.52687632553764 297.19123060789696 272.46056502134695 H 0.0 **** 0.06
3671 C 299.0872840531757 73.96468007417724 130.94152162750905 C 0.0 **** -0.24
3672 H 298.79317591007987 73.91539397492707 129.89205812627 H 0.0 **** 0.06
3673 H 300.08038140919126 73.5300121788681 131.0603526739303 H 0.0 **** 0.06
3674 H 298.37107788716617 73.40733449144966 131.54522269496368 H 0.0 **** 0.06
3675 H 299.10485404190825 75.00542240150321 131.2645077759234 H 0.0 **** 0.06
3676 C 135.23768208460322 240.37290385675425 193.4494274228656 C 0.0 **** -0.24
3677 H 134.58284351815522 240.2953331597273 194.3167293218761 H 0.0 **** 0.06
3678 H 136.23895660852438 240.65754756716927 193.77355492584923 H 0.0 **** 0.06
3679 H 134.8476012674736 241.1289626122599 192.7667726990556 H 0.0 **** 0.06
3680 H 135.27987038562614 239.41055565359505 192.9388459550686 H 0.0 **** 0.06
3681 C 231.80905502293683 20.334408277636797 134.2212839543107 C 0.0 **** -0.24
3682 H 231.33771546229096 21.017235399474373 133.51513065259158 H 0.0 **** 0.06
3683 H 232.87477911998198 20.55228021970187 134.28059929557065 H 0.0 **** 0.06
3684 H 231.66530443824703 19.30776204451601 133.88487998561502 H 0.0 **** 0.06
3685 H 231.35642236043992 20.460312497399244 135.2045835770068 H 0.0 **** 0.06
3686 C 33.16025843300338 252.12031919734108 39.156941835005 C 0.0 **** -0.24
3687 H 32.61836779222298 251.63765825375054 39.969266455827835 H 0.0 **** 0.06
3688 H 32.46382528816747 252.37826353208627 38.35910103328024 H 0.0 **** 0.06
3689 H 33.919227115947194 251.44017915968703 38.77207379095637 H 0.0 **** 0.06
3690 H 33.63865807522839 253.0268596187253 39.528444996944586 H 0.0 **** 0.06
3691 C 147.90906136462425 130.34381585128304 88.2369839422571 C 0.0 **** -0.24
3692 H 148.02172058437893 129.31766856368418 88.58676386436704 H 0.0 **** 0.06
3693 H 148.14865941848544 131.03187646233837 89.04758169524231 H 0.0 **** 0.06
3694 H 146.88161712156278 130.50660363293733 87.91271582505658 H 0.0 **** 0.06
3695 H 148.58528302023544 130.51799306122084 87.40005507921916 H 0.0 **** 0.06
3696 C 114.41011438289411 49.74020579808712 222.69170281006262 C 0.0 **** -0.24
3697 H 114.72363689285524 50.673638018624786 222.2244670297058 H 0.0 **** 0.06
3698 H 113.72064843907597 49.21597810107062 222.0299548339616 H 0.0 **** 0.06
3699 H 113.9134109298349 49.95604754470804 223.63777699913476 H 0.0 **** 0.06
3700 H 115.28444407974078 49.1154845862676 222.87604852170966 H 0.0 **** 0.06
3701 C 147.7739127829724 285.07285945419414 148.8908088486511 C 0.0 **** -0.24
3702 H 148.62988092116274 285.7383052206312 148.7752370888219 H 0.0 **** 0.06
3703 H 147.3508504242818 285.1948302316022 149.88730506765006 H 0.0 **** 0.06
3704 H 148.09694786739678 284.0400581773341 148.75593404845864 H 0.0 **** 0.06
3705 H 147.02029702260725 285.3183009863394 148.14286427336273 H 0.0 **** 0.06
3706 C 41.99359859440449 39.90236861963018 299.3768309811727 C 0.0 **** -0.24
3707 H 42.32166882967314 38.94909702170983 298.96252972505613 H 0.0 **** 0.06
3708 H 41.318469376733475 39.72024236022227 300.213617644475 H 0.0 **** 0.06
3709 H 41.47285919263163 40.4730876618471 298.60703710850146 H 0.0 **** 0.06
3710 H 42.86002267238001 40.465380043681506 299.7235640233036 H 0.0 **** 0.06
3711 C 285.5201767225907 48.23696532296407 96.34090167832525 C 0.0 **** -0.24
3712 H 286.56006629319324 48.3708494656787 96.64028616511939 H 0.0 **** 0.06
3713 H 285.4408921354795 48.32328695997796 95.25656137860128 H 0.0 **** 0.06
3714 H 284.90458918716126 49.00217114097404 96.81230000877792 H 0.0 **** 0.06
3715 H 285.1767476291234 47.25057172315064 96.65322919164797 H 0.0 **** 0.06
3716 C 148.61067300943282 106.04833289039675 42.02781137059901 C 0.0 **** -0.24
3717 H 147.5731973931656 106.11209932129378 41.70128949829768 H 0.0 **** 0.06
3718 H 148.78640929077773 106.7750558141147 42.82121977950439 H 0.0 **** 0.06
3719 H 149.2701059960259 106.26153874189816 41.18703925701266 H 0.0 **** 0.06
3720 H 148.81201067203 105.04477216027578 42.402718501870226 H 0.0 **** 0.06
3721 C 107.79575754539772 220.06879918906176 16.455844372991095 C 0.0 **** -0.24
3722 H 108.8607210666406 220.15760930550175 16.24261958816207 H 0.0 **** 0.06
3723 H 107.30430547489689 219.54089398547828 15.638969042458399 H 0.0 **** 0.06
3724 H 107.36169228220876 221.06404299827878 16.559016384920184 H 0.0 **** 0.06
3725 H 107.65599952791689 219.5146290667904 17.38418241682554 H 0.0 **** 0.06
3726 C 9.075811181682923 193.86909915547017 224.3595051200264 C 0.0 **** -0.24
3727 H 9.961253668510949 194.5045721609916 224.34767248980893 H 0.0 **** 0.06
3728 H 9.072526715125207 193.2338545638915 223.47396976253597 H 0.0 **** 0.06
3729 H 8.182341329797168 194.49207008490237 224.36481427918872 H 0.0 **** 0.06
3730 H 9.089003532217987 193.24514488273957 225.25353721142443 H 0.0 **** 0.06
3731 C 288.5630083701894 100.82794768869815 125.3090609386235 C 0.0 **** -0.24
3732 H 287.89285280422166 101.06340432228652 126.13690032460718 H 0.0 **** 0.06
3733 H 289.16226666806404 99.95387775235048 125.56490774988353 H 0.0 **** 0.06
3734 H 289.2206158938957 101.67737607402668 125.12241122362227 H 0.0 **** 0.06
3735 H 287.9762113314018 100.6191957246682 124.41514472457686 H 0.0 **** 0.06
3736 C 100.48661966849795 249.1496503089891 278.5126207690309 C 0.0 **** -0.24
3737 H 100.23136787834451 248.6101006534854 277.60033022058315 H 0.0 **** 0.06
3738 H 100.55546740073436 248.44639895854286 279.3430374604387 H 0.0 **** 0.06
3739 H 99.71551548627846 249.88915416063003 278.72534297586594 H 0.0 **** 0.06
3740 H 101.44584918795977 249.6519331052407 278.3807682789415 H 0.0 **** 0.06
3741 C 151.33208251369604 63.08249242864258 241.9117305128491 C 0.0 **** -0.24
3742 H 150.72500156338742 63.933851182855165 242.21913308314845 H 0.0 **** 0.06
3743 H 150.68421333091834 62.22745068164397 241.71580326139386 H 0.0 **** 0.06
3744 H 152.0342832977255 62.831441625124285 242.7057877502787 H 0.0 **** 0.06
3745 H 151.88259965841138 63.3362179742918 241.00622481569624 H 0.0 **** 0.06
3746 C 78.99289805098292 240.05299496113574 288.67277260568375 C 0.0 **** -0.24
3747 H 80.03451657996945 240.3435810674536 288.8121781585303 H 0.0 **** 0.06
3748 H 78.91452562647595 239.38546243442173 287.8146150215946 H 0.0 **** 0.06
3749 H 78.38824574743595 240.9429263192257 288.49924705193826 H 0.0 **** 0.06
3750 H 78.63747550839474 239.54015622733678 289.56675951904055 H 0.0 **** 0.06
3751 C 252.91917028679111 67.18163800873876 239.1690614821748 C 0.0 **** -0.24
3752 H 252.52332899640788 66.61755022856187 240.01358323975364 H 0.0 **** 0.06
3753 H 252.89765323577882 66.55891608329426 238.27438121933704 H 0.0 **** 0.06
3754 H 253.9458801454391 67.47889699864803 239.3809654836678 H 0.0 **** 0.06
3755 H 252.3085533728431 68.06968360854961 239.00838060786515 H 0.0 **** 0.06
3756 C 28.763117415005013 31.72866129864113 242.8376731865689 C 0.0 **** -0.24
3757 H 29.805047282503438 31.871534631793622 242.5488830935785 H 0.0 **** 0.06
3758 H 28.159443937324454 31.56550025616201 241.9447408499866 H 0.0 **** 0.06
3759 H 28.407269919895953 32.61542127673974 243.3611191210193 H 0.0 **** 0.06
3760 H 28.684671784340026 30.862509521619728 243.49416365013698 H 0.0 **** 0.06
3761 C 279.99361321933407 235.28912103469045 148.44323832869944 C 0.0 **** -0.24
3762 H 280.111964502979 235.25758559197857 147.36067016258298 H 0.0 **** 0.06
3763 H 279.6666169601342 236.28397743768636 148.74476864476205 H 0.0 **** 0.06
3764 H 280.9474337177616 235.06083219324637 148.91927195500256 H 0.0 **** 0.06
3765 H 279.2499384682307 234.55334760676968 148.75003089580673 H 0.0 **** 0.06
3766 C 196.34745512675403 89.67592641140948 103.81580643817048 C 0.0 **** -0.24
3767 H 197.10164976434965 88.99595308303441 104.21187344132909 H 0.0 **** 0.06
3768 H 196.4364154950963 90.64454435517237 104.30977879672514 H 0.0 **** 0.06
3769 H 195.35527477177374 89.26364350902602 103.99902025020904 H 0.0 **** 0.06
3770 H 196.49779765832295 89.79936914004008 102.74302949558523 H 0.0 **** 0.06
3771 C 28.047279744216326 125.35997033414819 175.6523672264044 C 0.0 **** -0.24
3772 H 28.47120301646038 124.62724452073914 174.9654834713715 H 0.0 **** 0.06
3773 H 28.02273421398209 124.94338219069411 176.65916968183228 H 0.0 **** 0.06
3774 H 27.034164298572847 125.61043017179705 175.33720644986033 H 0.0 **** 0.06
3775 H 28.661950671987 126.2603372672977 175.64625264886848 H 0.0 **** 0.06
3776 C 177.01217566841183 182.0792522197935 255.91383080463845 C 0.0 **** -0.24
3777 H 176.89594347141235 181.1410580820737 256.4577739937485 H 0.0 **** 0.06
3778 H 177.35632655264067 181.871185890652 254.90054855216925 H 0.0 **** 0.06
3779 H 177.74259641607517 182.70615410726668 256.4247817832121 H 0.0 **** 0.06
3780 H 176.05417372464257 182.5964222616621 255.87447642088478 H 0.0 **** 0.06
3781 C 27.265417547108314 285.7006602513508 206.52395977045137 C 0.0 **** -0.24
3782 H 27.49846298015717 284.66703653681833 206.26698857435412 H 0.0 **** 0.06
3783 H 26.540334893335967 285.7171503267203 207.33814069394342 H 0.0 **** 0.06
3784 H 26.846206989811662 286.20493082361736 205.65315264509644 H 0.0 **** 0.06
3785 H 28.17615048561521 286.21112930093165 206.83761757028122 H 0.0 **** 0.06
3786 C 118.20337882695233 296.54458023934507 155.61712165614404 C 0.0 **** -0.24
3787 H 118.54892340303041 295.6232663525385 155.14883326720667 H 0.0 **** 0.06
3788 H 118.12376192730278 296.3967406757333 156.694304539658 H 0.0 **** 0.06
3789 H 117.2273970710568 296.8138208251678 155.2128291002375 H 0.0 **** 0.06
3790 H 118.915107859719 297.3446484136486 155.41210689324055 H 0.0 **** 0.06
3791 C 274.09452466546867 183.48161074716643 249.08596582912327 C 0.0 **** -0.24
3792 H 273.12841385510575 183.18778443330785 248.6750822066122 H 0.0 **** 0.06
3793 H 274.12379177213666 184.5654522214989 249.2059885492834 H 0.0 **** 0.06
3794 H 274.887964118495 183.17037786920184 248.40593326858576 H 0.0 **** 0.06
3795 H 274.23750582837505 183.00430592567125 250.05523506043582 H 0.0 **** 0.06
3796 C 194.62124832983142 163.11868775341856 69.6946015270079 C 0.0 **** -0.24
3797 H 193.63097604470988 163.24111493372538 69.25523409609676 H 0.0 **** 0.06
3798 H 194.52212636723107 162.7677572470633 70.72206294655913 H 0.0 **** 0.06
3799 H 195.14261167644224 164.07624020873226 69.68660720573686 H 0.0 **** 0.06
3800 H 195.18861086293498 162.39075490429786 69.11505612658814 H 0.0 **** 0.06
3801 C 132.00301716305748 274.9506272824746 58.694979310186795 C 0.0 **** -0.24
3802 H 131.0649328892699 275.47847535112254 58.86475168335994 H 0.0 **** 0.06
3803 H 132.25070391033935 274.9828043293977 57.63304368512786 H 0.0 **** 0.06
3804 H 131.89755986339233 273.91298016562314 59.012648275743516 H 0.0 **** 0.06
3805 H 132.7973806021695 275.4269895942124 59.26838319777613 H 0.0 **** 0.06
3806 C 288.8259590284535 32.40066047987935 199.1996388875216 C 0.0 **** -0.24
3807 H 288.9436518903796 31.776516058895567 200.0849492725306 H 0.0 **** 0.06
3808 H 287.8417972887214 32.869043579726394 199.21468189689404 H 0.0 **** 0.06
3809 H 288.92306424045137 31.786256311155427 198.30520194733987 H 0.0 **** 0.06
3810 H 289.5950674834799 33.17274148172706 199.19522766031537 H 0.0 **** 0.06
3811 C 12.505474424129119 303.36798898600625 6.902621826136567 C 0.0 **** -0.24
3812 H 12.869436720247435 302.75806836540374 7.730145625646216 H 0.0 **** 0.06
3813 H 11.547077995354783 303.8108358328478 7.173862136513435 H 0.0 **** 0.06
3814 H 12.379716109400988 302.74211777159803 6.018586519458978 H 0.0 **** 0.06
3815 H 13.22519090399905 304.157828765309 6.689662540194803 H 0.0 **** 0.06
3816 C 19.029603267868907 242.3944148881141 151.9115896722629 C 0.0 **** -0.24
3817 H 19.044435798003136 241.57305278634908 151.1947559073671 H 0.0 **** 0.06
3818 H 18.380416457253418 243.18717097566793 151.54133352373123 H 0.0 **** 0.06
3819 H 20.040373024962634 242.78215342171768 152.03979138492917 H 0.0 **** 0.06
3820 H 18.65510069640743 242.03369616773134 152.86879715864382 H 0.0 **** 0.06
3821 C 228.87958912339323 74.29952624549861 259.04892836634184 C 0.0 **** -0.24
3822 H 228.35386600893514 75.24317797436535 258.9053770910904 H 0.0 **** 0.06
3823 H 228.17699734553634 73.54079475406647 259.39551698924646 H 0.0 **** 0.06
3824 H 229.6662004187196 74.43251687340205 259.7916446733906 H 0.0 **** 0.06
3825 H 229.32147687988436 73.98197908623757 258.10452889485236 H 0.0 **** 0.06
3826 C 213.0511325863446 216.74651484577328 306.65047618235974 C 0.0 **** -0.24
3827 H 212.00700709875878 217.04759468849238 306.73924693901597 H 0.0 **** 0.06
3828 H 213.55824744495447 217.40099903774285 305.94152391831284 H 0.0 **** 0.06
3829 H 213.10310700556278 215.71660348668945 306.2958727321632 H 0.0 **** 0.06
3830 H 213.5342700035515 216.81993769880899 307.6245263188334 H 0.0 **** 0.06
3831 C 198.69638322949368 246.92450979972318 100.72966021518897 C 0.0 **** -0.24
3832 H 198.4888064042242 246.93020214658833 101.80001287285353 H 0.0 **** 0.06
3833 H 198.7026444058596 247.94912686569322 100.35569227128238 H 0.0 **** 0.06
3834 H 197.92479363187118 246.3538855774965 100.21415188981851 H 0.0 **** 0.06
3835 H 199.6687956603855 246.46590606503966 100.5509256981446 H 0.0 **** 0.06
3836 C 2.316514098184598 287.7751892141015 298.02856786486745 C 0.0 **** -0.24
3837 H 3.005725892747364 288.0647696642548 298.82106115172877 H 0.0 **** 0.06
3838 H 2.717344792617837 286.91228931363975 297.496221296728 H 0.0 **** 0.06
3839 H 2.193034867201277 288.6053523890605 297.3330900920946 H 0.0 **** 0.06
3840 H 1.3510003970637285 287.5179524631 298.46303638218035 H 0.0 **** 0.06
3841 C 97.20212263264318 188.5897356199228 71.80757442224629 C 0.0 **** -0.24
3842 H 98.24352797533464 188.75018280701983 71.5295133498469 H 0.0 **** 0.06
3843 H 96.61664800549707 189.47115795176813 71.5459955930857 H 0.0 **** 0.06
3844 H 97.13563280190141 188.4149063863215 72.88167320448332 H 0.0 **** 0.06
3845 H 96.81290726276038 187.72310914674523 71.27399753194157 H 0.0 **** 0.06
3846 C 285.0271177688356 297.05129055016306 154.89947772438728 C 0.0 **** -0.24
3847 H 285.1197929160663 295.9825381086173 155.09779538607904 H 0.0 **** 0.06
3848 H 284.3843237994212 297.5052425597983 155.65292834026025 H 0.0 **** 0.06
3849 H 284.59224164881573 297.1999609812719 153.91145838756256 H 0.0 **** 0.06
3850 H 286.01322864194117 297.5139197935286 154.93643550752273 H 0.0 **** 0.06
3851 C 133.7499193584999 187.31331609312542 192.67353610477164 C 0.0 **** -0.24
3852 H 133.89337198249277 188.12957909598254 193.38195434815606 H 0.0 **** 0.06
3853 H 134.22184068409055 187.56919615501658 191.72477374919225 H 0.0 **** 0.06
3854 H 132.68323779570056 187.15133661832374 192.5178940666566 H 0.0 **** 0.06
3855 H 134.20002347576812 186.40428332954633 193.0713313587961 H 0.0 **** 0.06
3856 C 278.48135325710433 182.11994186357214 165.86778928145935 C 0.0 **** -0.24
3857 H 278.20253122151854 182.87477048542348 165.1319935369395 H 0.0 **** 0.06
3858 H 279.50024704811165 181.78412282045468 165.67602807313875 H 0.0 **** 0.06
3859 H 277.79859924292737 181.27387059387206 165.79522407739967 H 0.0 **** 0.06
3860 H 278.4218883836967 182.55006298155212 166.86773883226516 H 0.0 **** 0.06
3861 C 269.11324771645684 23.100450750601027 253.3364000688709 C 0.0 **** -0.24
3862 H 269.7259017840737 22.72537562642509 254.1558663537885 H 0.0 **** 0.06
3863 H 268.06065527949374 22.9250890432877 253.5607185641748 H 0.0 **** 0.06
3864 H 269.38056717282825 22.581273647569105 252.41633714099427 H 0.0 **** 0.06
3865 H 269.2858115118926 24.169870874092368 253.21407800520555 H 0.0 **** 0.06
3866 C 305.9287023405184 149.0094677728403 9.670401633397418 C 0.0 **** -0.24
3867 H 306.32900577529614 148.15575612510898 10.21735678067401 H 0.0 **** 0.06
3868 H 306.7477649958561 149.65783368194474 9.358983321430628 H 0.0 **** 0.06
3869 H 305.24805048585307 149.56583947953555 10.314813711709945 H 0.0 **** 0.06
3870 H 305.3898108728039 148.65747110196534 8.79029045675199 H 0.0 **** 0.06
3871 C 172.86386482070225 223.1595129478921 189.22746836701106 C 0.0 **** -0.24
3872 H 171.78556869445958 223.1107498697366 189.0781299154064 H 0.0 **** 0.06
3873 H 173.18021120623285 224.20345677064336 189.24797736997823 H 0.0 **** 0.06
3874 H 173.3673741076392 222.64276990314244 188.4104895587496 H 0.0 **** 0.06
3875 H 173.121307789014 222.68371757415002 190.17342884589914 H 0.0 **** 0.06
3876 C 157.4881120459857 125.05340400239007 206.5323019917136 C 0.0 **** -0.24
3877 H 158.12981409189035 125.88903674263722 206.2532683793233 H 0.0 **** 0.06
3878 H 156.77009455535017 124.86515003756202 205.73420570860833 H 0.0 **** 0.06
3879 H 156.9547210880753 125.29593172924328 207.45130892136848 H 0.0 **** 0.06
3880 H 158.09817401744817 124.16459173540753 206.68960262614326 H 0.0 **** 0.06
3881 C 195.19164900495326 301.5843191470017 291.6238757627777 C 0.0 **** -0.24
3882 H 194.65988991372444 302.09123449641424 290.81828315475275 H 0.0 **** 0.06
3883 H 195.4771875908279 302.3119456189432 292.3851502166347 H 0.0 **** 0.06
3884 H 196.0858291144251 301.1068171568401 291.22428581387123 H 0.0 **** 0.06
3885 H 194.5434350304347 300.8294419438369 292.06727557633945 H 0.0 **** 0.06
3886 C 252.55247804397194 182.86800338731723 101.44191406947328 C 0.0 **** -0.24
3887 H 252.51099688036498 181.87420614689023 100.99669310685641 H 0.0 **** 0.06
3888 H 252.3716736518144 182.79406685463562 102.51494459903768 H 0.0 **** 0.06
3889 H 251.79005537379572 183.50090981806403 100.98732472325096 H 0.0 **** 0.06
3890 H 253.53674675252114 183.30260572665009 101.2678242496435 H 0.0 **** 0.06
3891 C 162.3311731128735 31.40597225300303 300.80428158584476 C 0.0 **** -0.24
3892 H 161.5653396034329 31.910453136535438 300.21529311139034 H 0.0 **** 0.06
3893 H 163.29338889004197 31.89023854896658 300.6394019319962 H 0.0 **** 0.06
3894 H 162.39208010471128 30.360969848976623 300.5010726447786 H 0.0 **** 0.06
3895 H 162.07166847932922 31.462470442500774 301.8615406131057 H 0.0 **** 0.06
3896 C 176.7747284390943 242.21350594336928 183.2269700997407 C 0.0 **** -0.24
3897 H 177.75840621598144 241.799003319014 183.44431072907213 H 0.0 **** 0.06
3898 H 176.23787406700632 241.5425494845309 182.55568613034006 H 0.0 **** 0.06
3899 H 176.88913912910795 243.1887415346319 182.7514891903598 H 0.0 **** 0.06
3900 H 176.2144287273726 242.3254045310424 184.15524499937055 H 0.0 **** 0.06
3901 C 49.26522539956406 157.59236010389492 289.0078042098406 C 0.0 **** -0.24
3902 H 50.13999819085444 157.2668944592029 288.44324151560954 H 0.0 **** 0.06
3903 H 49.30670389431046 157.17506235477515 290.0142914062174 H 0.0 **** 0.06
3904 H 48.36118689476794 157.24757630261018 288.50753342852437 H 0.0 **** 0.06
3905 H 49.25614265370157 158.6806487691619 289.06534231201977 H 0.0 **** 0.06
3906 C 143.41359988451032 260.06398320310484 199.21745493322948 C 0.0 **** -0.24
3907 H 143.6291366879601 260.83474019719705 198.47718613458966 H 0.0 **** 0.06
3908 H 142.75761605845514 260.47324024327736 199.98605121669908 H 0.0 **** 0.06
3909 H 144.34497466930245 259.7284508774856 199.6736384695916 H 0.0 **** 0.06
3910 H 142.92199236084093 259.22118666558725 198.73164078306797 H 0.0 **** 0.06
3911 C 185.4725797925214 123.61255851664743 136.36544663673604 C 0.0 **** -0.24
3912 H 184.51889120971498 123.08640075665699 136.3298033139413 H 0.0 **** 0.06
3913 H 186.17928781416288 123.0409570452031 136.96785835994768 H 0.0 **** 0.06
3914 H 185.32723034703815 124.59690974091168 136.81172520561785 H 0.0 **** 0.06
3915 H 185.86359920679928 123.72577018606603 135.35420072869132 H 0.0 **** 0.06
3916 C 69.62125941170211 253.40623660832156 276.6023826764348 C 0.0 **** -0.24
3917 H 68.77366999681146 253.63647247758772 277.248293645941 H 0.0 **** 0.06
3918 H 69.50241383913291 252.404219841947 276.1895055977554 H 0.0 **** 0.06
3919 H 70.54246291625617 253.45315730103712 277.18411879086347 H 0.0 **** 0.06
3920 H 69.66661380610716 254.13239100131688 275.7911212366505 H 0.0 **** 0.06
3921 C 211.5284482340528 199.36254764100278 294.95397749384597 C 0.0 **** -0.24
3922 H 212.0224561169316 200.01810616083168 295.6713125549443 H 0.0 **** 0.06
3923 H 212.125476661604 199.30768651176635 294.0430770228594 H 0.0 **** 0.06
3924 H 210.54085098325305 199.75957804549068 294.7185441074018 H 0.0 **** 0.06
3925 H 211.42718472585992 198.3659430350342 295.3830501087399 H 0.0 **** 0.06
3926 C 276.1633689492226 229.54993916073374 184.73275291345027 C 0.0 **** -0.24
3927 H 277.17308240242426 229.14017416756587 184.69807229753155 H 0.0 **** 0.06
3928 H 275.5157670573891 228.97751376818672 184.06783764485175 H 0.0 **** 0.06
3929 H 276.1829818239778 230.59176706516746 184.4137148275501 H 0.0 **** 0.06
3930 H 275.781423163242 229.48986776342448 185.7522602441095 H 0.0 **** 0.06
3931 C 148.31012058609454 163.24271044402502 7.674295097058803 C 0.0 **** -0.24
3932 H 148.62243940924003 164.02068094775342 6.976846028671275 H 0.0 **** 0.06
3933 H 149.13265649109246 163.01276021214414 8.352156387849476 H 0.0 **** 0.06
3934 H 148.0348105035894 162.34642249101535 7.11882897589912 H 0.0 **** 0.06
3935 H 147.45240460633022 163.59303723721393 8.248159004509034 H 0.0 **** 0.06
3936 C 134.37884106695358 93.50924951341935 101.26419599423465 C 0.0 **** -0.24
3937 H 134.75076875974858 93.1111913348023 100.31969780413107 H 0.0 **** 0.06
3938 H 133.31646030790512 93.73238791342558 101.16948208770913 H 0.0 **** 0.06
3939 H 134.9211340293975 94.42157780268454 101.51209674943172 H 0.0 **** 0.06
3940 H 134.52774447829003 92.77218767679716 102.05262162057991 H 0.0 **** 0.06
3941 C 117.9953194106566 223.9889944611674 165.20655276510848 C 0.0 **** -0.24
3942 H 117.94788312903918 224.52973842670528 164.26134479184213 H 0.0 **** 0.06
3943 H 117.47396118802712 223.0372441160275 165.10627199751735 H 0.0 **** 0.06
3944 H 117.52252554700232 224.58380020739912 165.98803049120153 H 0.0 **** 0.06
3945 H 119.03757950592706 223.807307962747 165.46830887071707 H 0.0 **** 0.06
3946 C 155.74417782194473 68.38463651091044 212.26864813934796 C 0.0 **** -0.24
3947 H 155.6703073430591 69.44822237764825 212.4956098249482 H 0.0 **** 0.06
3948 H 155.69483924608642 67.81149056852817 213.19478894189808 H 0.0 **** 0.06
3949 H 156.6902378435778 68.18433349879723 211.76598872437228 H 0.0 **** 0.06
3950 H 154.91911676016434 68.09532382387135 211.61754464176238 H 0.0 **** 0.06
3951 C 165.1270521866307 255.927615358588 223.0925249464982 C 0.0 **** -0.24
3952 H 165.2855154178078 256.2909424973371 224.10771613188115 H 0.0 **** 0.06
3953 H 164.75840476690917 256.74154982490074 222.4688294188585 H 0.0 **** 0.06
3954 H 164.39481126315678 255.1194291370327 223.10647549044768 H 0.0 **** 0.06
3955 H 166.06869160241445 255.55710755212425 222.68765394860196 H 0.0 **** 0.06
3956 C 101.3611872238871 136.48262593536577 251.96648127880928 C 0.0 **** -0.24
3957 H 102.30133387571934 136.44144780477583 252.51566611142607 H 0.0 **** 0.06
3958 H 100.9354427981892 137.4834621278451 252.04983568933065 H 0.0 **** 0.06
3959 H 100.66395902760641 135.75508309822968 252.38200096833555 H 0.0 **** 0.06
3960 H 101.5445566598284 136.25211996947257 250.91696805822082 H 0.0 **** 0.06
3961 C 107.64352509181765 296.3219640869471 103.44419464304573 C 0.0 **** -0.24
3962 H 108.68168975610615 296.6200951116923 103.58827229156896 H 0.0 **** 0.06
3963 H 107.44170406879681 296.214392628587 102.37783259761346 H 0.0 **** 0.06
3964 H 106.98578713980052 297.08249402948303 103.86354454159883 H 0.0 **** 0.06
3965 H 107.46646893126612 295.3712944926712 103.9459363922607 H 0.0 **** 0.06
3966 C 258.7771102966349 274.2709035859225 285.25588929486247 C 0.0 **** -0.24
3967 H 259.255191561714 275.22594446641835 285.476870236992 H 0.0 **** 0.06
3968 H 259.5261681125852 273.47965178778423 285.2689018579554 H 0.0 **** 0.06
3969 H 258.31306233952904 274.3174023736595 284.27131847430553 H 0.0 **** 0.06
3970 H 258.0148819344063 274.0646274537313 286.00754442386585 H 0.0 **** 0.06
3971 C 35.47908186781416 45.35653123192964 99.10448903002774 C 0.0 **** -0.24
3972 H 36.13868693930581 46.139243719213226 99.47910438160537 H 0.0 **** 0.06
3973 H 34.72285773140169 45.12857282464995 99.85710737937825 H 0.0 **** 0.06
3974 H 36.06266984502915 44.46092150970216 98.8918563717857 H 0.0 **** 0.06
3975 H 34.99180931873286 45.699041968556 98.19166801381257 H 0.0 **** 0.06
3976 C 202.42020111743722 298.945011390084 208.33245063481894 C 0.0 **** -0.24
3977 H 201.76916058722378 299.27246187001725 209.1429028297615 H 0.0 **** 0.06
3978 H 203.42938574523362 299.3206795126511 208.5036002831224 H 0.0 **** 0.06
3979 H 202.0430543405089 299.3310264637356 207.38562065015952 H 0.0 **** 0.06
3980 H 202.43788216052718 297.85587467467076 208.2991798712937 H 0.0 **** 0.06
3981 C 193.52743821596835 206.60441913305772 224.7173649180486 C 0.0 **** -0.24
3982 H 193.33473239375178 207.3297041946745 223.92625342173247 H 0.0 **** 0.06
3983 H 194.53860230894264 206.74338394483368 225.09943075853874 H 0.0 **** 0.06
3984 H 193.4247356454448 205.59606730940772 224.3166978111155 H 0.0 **** 0.06
3985 H 192.81008928639517 206.75006865753517 225.52461461689478 H 0.0 **** 0.06
3986 C 203.01497445922854 226.2989672271239 301.55748340874663 C 0.0 **** -0.24
3987 H 201.9780220633465 226.34352544800782 301.88830607612203 H 0.0 **** 0.06
3988 H 203.6755266943714 226.38198962423218 302.4219106102893 H 0.0 **** 0.06
3989 H 203.2123126449951 227.12177779066772 300.8704704785937 H 0.0 **** 0.06
3990 H 203.19577652138497 225.3505622673846 301.0512532258461 H 0.0 **** 0.06
3991 C 56.276232805824776 237.44668190719398 120.49532883637917 C 0.0 **** -0.24
3992 H 56.93262173805695 237.38083473398967 121.36305060599187 H 0.0 **** 0.06
3993 H 56.87354939372608 237.61664578598965 119.6000877966076 H 0.0 **** 0.06
3994 H 55.579136269478454 238.27451736839942 120.63026298420624 H 0.0 **** 0.06
3995 H 55.719372883989394 236.51572986265035 120.39073119602827 H 0.0 **** 0.06
3996 C 94.17198747157946 34.40789935231908 141.0115572978302 C 0.0 **** -0.24
3997 H 93.79095773255204 35.36204760273961 141.37642687299893 H 0.0 **** 0.06
3998 H 93.38286942584813 33.65790539429054 141.0637024982777 H 0.0 **** 0.06
3999 H 95.01443191953646 34.09342449244275 141.62691756696455 H 0.0 **** 0.06
4000 H 94.49952631634676 34.51948773727048 139.97709284927507 H 0.0 **** 0.06
4001 C 170.1926144537171 187.03473978870625 148.72889486737856 C 0.0 **** -0.24
4002 H 170.21708408013473 187.10354990865568 149.81630911842086 H 0.0 **** 0.06
4003 H 169.15936625287668 186.94796714793318 148.39344887738733 H 0.0 **** 0.06
4004 H 170.7543635579941 186.1567044098128 148.40784164147198 H 0.0 **** 0.06
4005 H 170.64076146231554 187.93013668434014 148.29860426069672 H 0.0 **** 0.06
4006 C 12.645596760485589 232.36357909137882 103.70922151273086 C 0.0 **** -0.24
4007 H 11.630428530151562 232.59724197735488 103.38820676184301 H 0.0 **** 0.06
4008 H 12.639838256772833 231.43898031651565 104.28807408772823 H 0.0 **** 0.06
4009 H 13.026585997175303 233.17615716875557 104.32707458221702 H 0.0 **** 0.06
4010 H 13.284111459276332 232.2407192228979 102.83510951960596 H 0.0 **** 0.06
4011 C 239.7051499747763 226.8835866343896 19.52759674484018 C 0.0 **** -0.24
4012 H 240.56143228221987 226.6172135456572 18.908556896150287 H 0.0 **** 0.06
4013 H 240.01049201753898 227.61391269945477 20.276423441858242 H 0.0 **** 0.06
4014 H 239.32474108576068 225.99070431704035 20.02404975960914 H 0.0 **** 0.06
4015 H 238.92317218156504 227.31108294563862 18.899818929178508 H 0.0 **** 0.06
4016 C 281.6489258427659 196.0192316203358 261.83611296983327 C 0.0 **** -0.24
4017 H 281.98529891322477 195.87684411732351 262.86287307053504 H 0.0 **** 0.06
4018 H 280.5633317041409 196.12042491312388 261.8213943580867 H 0.0 **** 0.06
4019 H 281.94171712232804 195.15732887215228 261.2362269215991 H 0.0 **** 0.06
4020 H 282.1043673978812 196.91916330175025 261.42569087246164 H 0.0 **** 0.06
4021 C 294.2738066212633 297.4707147580445 274.9629855325351 C 0.0 **** -0.24
4022 H 293.33111640942604 297.19332348244296 275.43333496538264 H 0.0 **** 0.06
4023 H 294.84979586518983 296.57167186148985 274.74373998295073 H 0.0 **** 0.06
4024 H 294.8421939481466 298.11095692163155 275.63850027990355 H 0.0 **** 0.06
4025 H 294.0722571366457 298.00913720443066 274.036447120792 H 0.0 **** 0.06
4026 C 144.68211866250232 297.270506810901 14.898077598736961 C 0.0 **** -0.24
4027 H 144.2512985048378 296.90585276496427 15.830544632117892 H 0.0 **** 0.06
4028 H 145.61473606395535 297.793810303605 15.108960473649063 H 0.0 **** 0.06
4029 H 143.98158644186893 297.9539786495928 14.417970105803022 H 0.0 **** 0.06
4030 H 144.87827480739065 296.4273250085208 14.235309488788971 H 0.0 **** 0.06
4031 C 154.59414993551638 219.89963338067037 146.53041030668476 C 0.0 **** -0.24
4032 H 154.72174700931703 220.91620166298026 146.15690224914886 H 0.0 **** 0.06
4033 H 154.13776723242768 219.93238359796624 147.5205429285165 H 0.0 **** 0.06
4034 H 155.56611860598014 219.41110593476856 146.59359404589304 H 0.0 **** 0.06
4035 H 153.9490515159609 219.3418030311248 145.85185325039484 H 0.0 **** 0.06
4036 C 74.8283132565073 139.48641821847974 185.9443098935476 C 0.0 **** -0.24
4037 H 75.87391136102707 139.22789141195946 186.11132738857083 H 0.0 **** 0.06
4038 H 74.61272056334221 140.4476345678196 186.41188798820923 H 0.0 **** 0.06
4039 H 74.19056957507865 138.71763553379625 186.3819519113511 H 0.0 **** 0.06
4040 H 74.63619167746364 139.55048975601932 184.87344833137251 H 0.0 **** 0.06
4041 C 221.99186005531323 314.0220561680398 201.28190265788135 C 0.0 **** -0.24
4042 H 221.26866658889253 313.3337470976444 200.84377346856712 H 0.0 **** 0.06
4043 H 222.7921868445336 313.4537584811795 201.75731524270668 H 0.0 **** 0.06
4044 H 221.49583188674393 314.6441113722616 202.02581308337534 H 0.0 **** 0.06
4045 H 222.4099396632799 314.6547464459707 200.49934096651174 H 0.0 **** 0.06
4046 C 18.324545829171825 44.2203682460256 284.16345690267445 C 0.0 **** -0.24
4047 H 19.15275524958362 44.618802188812424 284.74824651665494 H 0.0 **** 0.06
4048 H 18.183049106873312 44.8311781863124 283.2715100169438 H 0.0 **** 0.06
4049 H 17.413776706293916 44.23812920094656 284.76402539504005 H 0.0 **** 0.06
4050 H 18.54577764672949 43.19429355509533 283.87151417451656 H 0.0 **** 0.06
4051 C 99.70961385779339 154.88277946471345 168.4295855832712 C 0.0 **** -0.24
4052 H 98.71115856901267 155.31560999872073 168.3654052412454 H 0.0 **** 0.06
4053 H 100.34986277982588 155.53203752648056 169.0257740027934 H 0.0 **** 0.06
4054 H 100.12628760250874 154.78320324795123 167.42672471421474 H 0.0 **** 0.06
4055 H 99.64975539590898 153.90028050766438 168.89759852440977 H 0.0 **** 0.06
4056 C 249.04761891599514 51.43384620238456 171.35663245533698 C 0.0 **** -0.24
4057 H 248.7770261729362 52.48884694752772 171.31589740643022 H 0.0 **** 0.06
4058 H 249.98574119210537 51.27855344355186 170.8229330003884 H 0.0 **** 0.06
4059 H 248.2619545427196 50.83865141662574 170.89184647552395 H 0.0 **** 0.06
4060 H 249.16732648269522 51.12863060266807 172.39686939601745 H 0.0 **** 0.06
4061 C 51.39091552012985 52.87680946500814 30.984955859050444 C 0.0 **** -0.24
4062 H 51.86668700210967 52.52209458548893 30.070448230357187 H 0.0 **** 0.06
4063 H 50.73392469508357 52.100240987360536 31.377694715084772 H 0.0 **** 0.06
4064 H 50.80629817883997 53.77135320024482 30.766251886348698 H 0.0 **** 0.06
4065 H 52.155462468654235 53.11520226461698 31.723530283819287 H 0.0 **** 0.06
4066 C 41.720433087408594 68.9076316220324 60.13011140751371 C 0.0 **** -0.24
4067 H 41.298706271813614 68.70652720160328 61.11454314810362 H 0.0 **** 0.06
4068 H 42.69928710909261 68.43321954385021 60.05069893575944 H 0.0 **** 0.06
4069 H 41.825843352244874 69.98368261609511 59.993388028644176 H 0.0 **** 0.06
4070 H 41.058581700126524 68.50573102556174 59.36262980910999 H 0.0 **** 0.06
4071 C 22.431822482754143 259.8067712024441 301.3155727237132 C 0.0 **** -0.24
4072 H 22.722108519962063 260.73070503062684 301.81644561257224 H 0.0 **** 0.06
4073 H 21.344483274392786 259.73809873305055 301.28210799559 H 0.0 **** 0.06
4074 H 22.83354724562153 258.9547632917994 301.8645145124739 H 0.0 **** 0.06
4075 H 22.82828974182678 259.80451627157527 300.3000630096866 H 0.0 **** 0.06
4076 C 88.02978651429734 149.03789112939955 9.912165038962513 C 0.0 **** -0.24
4077 H 87.31845587878735 149.4480333280614 10.629386382836302 H 0.0 **** 0.06
4078 H 88.1089414302086 147.9600855194038 10.054217551510376 H 0.0 **** 0.06
4079 H 89.00594720723271 149.49766497826812 10.06749584977517 H 0.0 **** 0.06
4080 H 87.68621435208772 149.24686724656692 8.898844505428883 H 0.0 **** 0.06
4081 C 214.26325090824398 60.20683850368064 128.3011564366395 C 0.0 **** -0.24
4082 H 213.64086371008517 59.83149739990358 127.48926692555267 H 0.0 **** 0.06
4083 H 214.56720469736138 59.37828913380403 128.94014421553592 H 0.0 **** 0.06
4084 H 213.6969505376332 60.92993245668404 128.88839520980085 H 0.0 **** 0.06
4085 H 215.1486666846578 60.689862567632474 127.88606245559518 H 0.0 **** 0.06
4086 C 98.47178625998009 131.80112724427985 280.57882321981265 C 0.0 **** -0.24
4087 H 98.43846720715047 130.9040752590129 279.96049407884266 H 0.0 **** 0.06
4088 H 98.66916930622006 132.6694444498244 279.9498434780319 H 0.0 **** 0.06
4089 H 99.26401511108517 131.7012753522066 281.3207918155908 H 0.0 **** 0.06
4090 H 97.51362984777322 131.92920772145246 281.083643025782 H 0.0 **** 0.06
4091 C 231.49930820981155 159.3304994203188 121.31691034406458 C 0.0 **** -0.24
4092 H 230.47511253736042 158.96561243464566 121.23195701737137 H 0.0 **** 0.06
4093 H 232.1558405262939 158.7148803015279 120.70102661032743 H 0.0 **** 0.06
4094 H 231.81878541894207 159.27447338831757 122.35758500360166 H 0.0 **** 0.06
4095 H 231.54584809254743 160.36433719137074 120.97689880659593 H 0.0 **** 0.06
4096 C 87.74076467888972 227.64024941693955 308.9373140879452 C 0.0 **** -0.24
4097 H 87.60475556472167 226.8467868736579 308.20351162391887 H 0.0 **** 0.06
4098 H 88.46814489201606 228.36112874923538 308.56195243472257 H 0.0 **** 0.06
4099 H 88.10195528982047 227.21262425034752 309.87225387552814 H 0.0 **** 0.06
4100 H 86.78841373666597 228.1414314110579 309.1114509400348 H 0.0 **** 0.06
4101 C 154.81704353883418 124.21843253850162 11.01655305090587 C 0.0 **** -0.24
4102 H 154.29885283533952 124.2097047558087 11.975813481448995 H 0.0 **** 0.06
4103 H 154.14830089726382 123.8461325829384 10.240134752024986 H 0.0 **** 0.06
4104 H 155.6979159502825 123.57964795990193 11.073862762725156 H 0.0 **** 0.06
4105 H 155.12111216112856 125.23725037049411 10.776605457188467 H 0.0 **** 0.06
4106 C 196.31225355213638 191.95946233814647 107.81810225724675 C 0.0 **** -0.24
4107 H 196.75976651116736 192.8850631701601 107.45678024191056 H 0.0 **** 0.06
4108 H 196.7563234977506 191.11282855312066 107.2934619304576 H 0.0 **** 0.06
4109 H 195.238147241709 191.9791930057359 107.63195530591963 H 0.0 **** 0.06
4110 H 196.49410725695373 191.8606124455065 108.88786030220678 H 0.0 **** 0.06
4111 C 129.06924901223414 54.692038316627986 130.63278698449676 C 0.0 **** -0.24
4112 H 129.81930769659206 54.203413723822564 131.2547430340508 H 0.0 **** 0.06
4113 H 128.18360880442702 54.06041893675217 130.56850846390648 H 0.0 **** 0.06
4114 H 129.4752693443387 54.8532079756103 129.63419488534612 H 0.0 **** 0.06
4115 H 128.80078647427126 55.65181631176495 131.07496615485815 H 0.0 **** 0.06
4116 C 46.35030903433784 185.86147321092773 157.95069404656908 C 0.0 **** -0.24
4117 H 46.65285781015473 184.81759669437952 157.85969177921015 H 0.0 **** 0.06
4118 H 46.93281420461085 186.34102467378216 158.73748211967933 H 0.0 **** 0.06
4119 H 45.291126527397495 185.9114544692353 158.20023890056973 H 0.0 **** 0.06
4120 H 46.525992344080095 186.37430156113595 157.00482840615314 H 0.0 **** 0.06
4121 C 309.83325280062337 244.0164653797909 191.81399133006943 C 0.0 **** -0.24
4122 H 310.8401004942156 244.2246459391738 192.1741314702927 H 0.0 **** 0.06
4123 H 309.3088532466582 244.95698777718576 191.63798823696612 H 0.0 **** 0.06
4124 H 309.2935456122341 243.43400330681357 192.56131551575083 H 0.0 **** 0.06
4125 H 309.88890597585885 243.45215442428594 190.8838326267362 H 0.0 **** 0.06
4126 C 171.78371780778338 86.14721079667746 92.10006433468479 C 0.0 **** -0.24
4127 H 171.15084687271752 85.62316388144512 92.81561206606193 H 0.0 **** 0.06
4128 H 171.30050489103803 87.07729717076768 91.80065831570738 H 0.0 **** 0.06
4129 H 171.93892561349253 85.5192359743105 91.22342044788945 H 0.0 **** 0.06
4130 H 172.74555993011455 86.37021227215283 92.56153093404052 H 0.0 **** 0.06
4131 C 258.5149909723436 16.304406392056137 183.0462576647501 C 0.0 **** -0.24
4132 H 259.10346475538415 17.21127811662585 183.18620991625147 H 0.0 **** 0.06
4133 H 259.12640324784655 15.433982598198924 183.28530954336833 H 0.0 **** 0.06
4134 H 258.18408683770053 16.243290662052402 182.0095809213082 H 0.0 **** 0.06
4135 H 257.6464150668301 16.32995277647109 183.70496141640234 H 0.0 **** 0.06
4136 C 268.0056946431985 218.73780913368302 184.4954444866753 C 0.0 **** -0.24
4137 H 267.9947174848353 217.705599440169 184.8456587084222 H 0.0 **** 0.06
4138 H 267.0154037632351 219.00618517145136 184.12724124642193 H 0.0 **** 0.06
4139 H 268.73351213065564 218.84042242506467 183.69082559221067 H 0.0 **** 0.06
4140 H 268.2784932503961 219.39757757837094 185.3192635630188 H 0.0 **** 0.06
4141 C 280.7514387949541 157.7744788207421 89.19468384717098 C 0.0 **** -0.24
4142 H 280.1642175706908 157.0342378286727 89.73829295144469 H 0.0 **** 0.06
4143 H 280.4763089260068 157.75325152351223 88.14017575941148 H 0.0 **** 0.06
4144 H 281.81222663790686 157.54439636775658 89.29888351777225 H 0.0 **** 0.06
4145 H 280.5534153754713 158.76582418059718 89.60271994169813 H 0.0 **** 0.06
4146 C 174.34117818355378 156.73665687149185 163.47615485972005 C 0.0 **** -0.24
4147 H 173.32772509444237 157.13371415195536 163.4277224576291 H 0.0 **** 0.06
4148 H 174.50898624870604 156.066687641864 162.63114240543274 H 0.0 **** 0.06
4149 H 174.47133926869753 156.1863523225087 164.40801447650273 H 0.0 **** 0.06
4150 H 175.055897638774 157.55880529384 163.43523514124354 H 0.0 **** 0.06
4151 C 145.97642337622221 145.93838093770827 85.77518458222465 C 0.0 **** -0.24
4152 H 145.0144517028784 145.47474179065102 85.55613985626104 H 0.0 **** 0.06
4153 H 146.01500796095405 146.2141229896831 86.82964364089253 H 0.0 **** 0.06
4154 H 146.09702443262532 146.83048132815014 85.16066311949311 H 0.0 **** 0.06
4155 H 146.7783230734106 145.23375441734726 85.55410384173118 H 0.0 **** 0.06
4156 C 78.30963933232292 63.85512225686446 92.16947441243451 C 0.0 **** -0.24
4157 H 79.0646902488813 63.20356760207474 92.61010577562229 H 0.0 **** 0.06
4158 H 78.09320887134757 63.52525801002159 91.15337708236433 H 0.0 **** 0.06
4159 H 78.68261955489965 64.87923391435598 92.1484406856168 H 0.0 **** 0.06
4160 H 77.39994974929692 63.812564396320056 92.7686814236587 H 0.0 **** 0.06
4161 C 196.34151147332597 165.9883491066836 115.06468581836032 C 0.0 **** -0.24
4162 H 195.9223650824236 165.64010564543622 114.12174672405072 H 0.0 **** 0.06
4163 H 196.8378508327528 166.94681235977436 114.90978331115554 H 0.0 **** 0.06
4164 H 197.0646511256175 165.26008674910503 115.43221858288192 H 0.0 **** 0.06
4165 H 195.54206536115987 166.1074025688577 115.79543306133962 H 0.0 **** 0.06
4166 C 167.08262803165132 222.99682122486806 245.79141865032136 C 0.0 **** -0.24
4167 H 166.63436165162346 223.47475767724205 246.66244640519386 H 0.0 **** 0.06
4168 H 167.61759426457684 222.0999256033375 246.1036184638163 H 0.0 **** 0.06
4169 H 167.77884680651874 223.68870086632876 245.31615731742198 H 0.0 **** 0.06
4170 H 166.2995055090339 222.7257947781749 245.08284322532145 H 0.0 **** 0.06
4171 C 197.85478246509075 211.06863060768137 39.006270109219486 C 0.0 **** -0.24
4172 H 198.4995860001655 211.93404759558547 39.15610396366242 H 0.0 **** 0.06
4173 H 196.87934935598963 211.2618888287243 39.45237083591445 H 0.0 **** 0.06
4174 H 198.30368340360764 210.19517728737426 39.478757773259815 H 0.0 **** 0.06
4175 H 197.7361639057142 210.884566356027 37.93858226265701 H 0.0 **** 0.06
4176 C 175.09328875740806 127.99303984930282 253.5072471033262 C 0.0 **** -0.24
4177 H 174.74444874699554 127.60491113002442 254.4647203921376 H 0.0 **** 0.06
4178 H 175.72128253542462 127.24738031265579 253.0199381469096 H 0.0 **** 0.06
4179 H 175.6706024707571 128.9025602055366 253.6741241511941 H 0.0 **** 0.06
4180 H 174.23536571692858 128.2179628222218 252.8734387223011 H 0.0 **** 0.06
4181 C 46.264857419337204 108.68075175342526 301.41349089533736 C 0.0 **** -0.24
4182 H 46.03826877024733 107.68409009570163 301.7935796728092 H 0.0 **** 0.06
4183 H 45.33675623938734 109.18509728291835 301.1411489325039 H 0.0 **** 0.06
4184 H 46.90532381066447 108.59792206819046 300.5355629976872 H 0.0 **** 0.06
4185 H 46.7783882715205 109.25482466587866 302.1848421160387 H 0.0 **** 0.06
4186 C 65.63971572698762 153.23226230122492 39.55321895789788 C 0.0 **** -0.24
4187 H 64.76681384507265 153.83050846068136 39.81324046532862 H 0.0 **** 0.06
4188 H 66.48250784747233 153.89071518047132 39.34207540738328 H 0.0 **** 0.06
4189 H 65.41843661114586 152.63055903019028 38.671772376524046 H 0.0 **** 0.06
4190 H 65.8914685946238 152.5759737073542 40.386230437220206 H 0.0 **** 0.06
4191 C 266.5364822389215 229.18433396479116 26.107063754269234 C 0.0 **** -0.24
4192 H 267.13969979133475 228.2787848958525 26.174560566747346 H 0.0 **** 0.06
4193 H 266.5445235280698 229.69879946622382 27.06775097363382 H 0.0 **** 0.06
4194 H 265.51170729788385 228.9184559531402 25.845597584158753 H 0.0 **** 0.06
4195 H 266.9483451307929 229.83873131130053 25.339045252280556 H 0.0 **** 0.06
4196 C 206.78839833236287 243.53119651109117 46.749635795494356 C 0.0 **** -0.24
4197 H 207.17193297366163 243.69688714668274 45.74330625786263 H 0.0 **** 0.06
4198 H 205.87326946451753 242.93902312396835 46.69622046310991 H 0.0 **** 0.06
4199 H 206.57313583157236 244.49060386683783 47.22021621591364 H 0.0 **** 0.06
4200 H 207.53286937275703 242.99576462583573 47.33894888436268 H 0.0 **** 0.06
4201 C 74.81530932852806 53.09363703884202 156.550703013827 C 0.0 **** -0.24
4202 H 74.86097504181663 52.00764092787645 156.63264469992833 H 0.0 **** 0.06
4203 H 73.77393209597818 53.41566394154904 156.57705613172396 H 0.0 **** 0.06
4204 H 75.26978842191241 53.40706285955454 155.61111195578707 H 0.0 **** 0.06
4205 H 75.35579318906272 53.5428865134873 157.38393974882757 H 0.0 **** 0.06
4206 C 127.20580435842285 211.02907177804107 144.41587308537453 C 0.0 **** -0.24
4207 H 128.29341519162594 211.10432186179992 144.40017424769223 H 0.0 **** 0.06
4208 H 126.77517040443831 212.02798485514086 144.49746610129523 H 0.0 **** 0.06
4209 H 126.89541246039965 210.4284161800977 145.26961840034036 H 0.0 **** 0.06
4210 H 126.86087479303347 210.55880700603223 143.49537105597517 H 0.0 **** 0.06
4211 C 309.69514818733205 52.88583765583678 157.73524318166977 C 0.0 **** -0.24
4212 H 308.8288549358141 52.33006157822285 157.37608680213975 H 0.0 **** 0.06
4213 H 310.43371872900764 52.190121132088166 158.13156554621042 H 0.0 **** 0.06
4214 H 309.3843353538887 53.5737060628727 158.522220812615 H 0.0 **** 0.06
4215 H 310.13068554332733 53.450409043767024 156.9107623087234 H 0.0 **** 0.06
4216 C 61.983902787058526 283.3835408933897 238.87333393740747 C 0.0 **** -0.24
4217 H 61.23295389608501 283.55636758680333 238.10262708931967 H 0.0 **** 0.06
4218 H 62.886946318009734 282.9800256528268 238.41577609424343 H 0.0 **** 0.06
4219 H 61.59678341002126 282.672332732286 239.6040513221092 H 0.0 **** 0.06
4220 H 62.216974939153374 284.3250512077462 239.37068597561972 H 0.0 **** 0.06
4221 C 178.10170586313495 131.18523103819552 146.80607001098318 C 0.0 **** -0.24
4222 H 178.97133623788585 130.66472304835457 146.40359914425704 H 0.0 **** 0.06
4223 H 178.2836131302231 131.44207180783067 147.84984293506787 H 0.0 **** 0.06
4224 H 177.22687905566573 130.53877636020388 146.73712252645328 H 0.0 **** 0.06
4225 H 177.9273686393181 132.096080943659 146.23203138979136 H 0.0 **** 0.06
4226 C 220.07778610189672 301.3901775257471 125.19135892672347 C 0.0 **** -0.24
4227 H 220.67328399391997 300.6965990579333 125.7851143646154 H 0.0 **** 0.06
4228 H 219.48056401867962 300.8312692256321 124.47031617545107 H 0.0 **** 0.06
4229 H 220.74022756046332 302.0758531298878 124.66246703557812 H 0.0 **** 0.06
4230 H 219.41856951592612 301.95675223004883 125.84883892341261 H 0.0 **** 0.06
4231 C 280.26404626352075 98.73718547026851 24.810502358257963 C 0.0 **** -0.24
4232 H 280.01055440485607 99.55304297817628 25.48742462435328 H 0.0 **** 0.06
4233 H 281.16028750854724 98.23130995742667 25.171312490799835 H 0.0 **** 0.06
4234 H 280.4499039695949 99.13740121048022 23.81322775736362 H 0.0 **** 0.06
4235 H 279.43715903770686 98.02872443295917 24.770205700167395 H 0.0 **** 0.06
4236 C 307.62948101012114 280.999847136984 262.7585213081002 C 0.0 **** -0.24
4237 H 307.94601701533077 281.3051304314349 263.7561391807708 H 0.0 **** 0.06
4238 H 307.2234099010185 279.98948171823395 262.79958615690487 H 0.0 **** 0.06
4239 H 308.48448370560874 281.0215162220794 262.08312128631405 H 0.0 **** 0.06
4240 H 306.86240557075575 281.68505884329653 262.39566245885146 H 0.0 **** 0.06
4241 C 34.43448456243601 181.952650831766 156.84548793618683 C 0.0 **** -0.24
4242 H 34.09740228908544 181.6811801920993 157.84583916569426 H 0.0 **** 0.06
4243 H 35.158532159835715 181.21751609421574 156.49429661533503 H 0.0 **** 0.06
4244 H 34.90159958139867 182.9373159743909 156.87483871549028 H 0.0 **** 0.06
4245 H 33.58153646013099 181.9758100287989 156.1684712977799 H 0.0 **** 0.06
4246 C 302.04453946538655 301.75661939645636 50.93887530961814 C 0.0 **** -0.24
4247 H 301.9415263647709 301.6549555995338 52.01889156884556 H 0.0 **** 0.06
4248 H 301.4266979418379 302.58517016475764 50.591324118880436 H 0.0 **** 0.06
4249 H 301.7225520089138 300.83375941723745 50.45558151672401 H 0.0 **** 0.06
4250 H 303.0879438023287 301.9513376560459 50.69003491720491 H 0.0 **** 0.06
4251 C 153.69747497297686 131.75986349619478 188.8542823319164 C 0.0 **** -0.24
4252 H 153.82563658480126 132.25511415284257 189.8167399870523 H 0.0 **** 0.06
4253 H 153.65297622468893 132.50902737457685 188.0634001046178 H 0.0 **** 0.06
4254 H 152.7708666718018 131.18485079346823 188.86354534212785 H 0.0 **** 0.06
4255 H 154.5385062388819 131.09027949691176 188.6745852896275 H 0.0 **** 0.06
4256 C 136.66813590744763 264.7846847305084 55.10310729368541 C 0.0 **** -0.24
4257 H 137.05242983251344 265.01971854422106 56.0954281255504 H 0.0 **** 0.06
4258 H 136.1588071544199 263.82157738964656 55.129561393698026 H 0.0 **** 0.06
4259 H 137.49571795928273 264.7394486795323 54.394006451358734 H 0.0 **** 0.06
4260 H 135.9659702993591 265.5587498481532 54.79230027058247 H 0.0 **** 0.06
4261 C 267.73334199140334 120.11994319542825 295.682475726814 C 0.0 **** -0.24
4262 H 268.04262029162254 121.14802469825443 295.4930484103181 H 0.0 **** 0.06
4263 H 268.61495675570137 119.49696755079233 295.8311098430182 H 0.0 **** 0.06
4264 H 267.16476477896595 119.74843498405201 294.83021992587817 H 0.0 **** 0.06
4265 H 267.1100427887 120.08701059646995 296.5762933254048 H 0.0 **** 0.06
4266 C 160.89694558635995 305.2708809872468 133.2532859482663 C 0.0 **** -0.24
4267 H 161.18859306683208 304.224708778788 133.34647289931553 H 0.0 **** 0.06
4268 H 159.81936190417616 305.33531380254664 133.0968756615207 H 0.0 **** 0.06
4269 H 161.41406678318242 305.71786123396794 132.40369741206212 H 0.0 **** 0.06
4270 H 161.16467798337612 305.80590877311505 134.16391703588852 H 0.0 **** 0.06
4271 C 222.78152582469272 280.4168677271533 94.88298949808848 C 0.0 **** -0.24
4272 H 222.72442993187815 280.89598219081785 93.90519312703381 H 0.0 **** 0.06
4273 H 222.48002004916236 281.1271158915037 95.65342260096358 H 0.0 **** 0.06
4274 H 223.8040742086734 280.08981143622384 95.06849240879271 H 0.0 **** 0.06
4275 H 222.1151863771456 279.5539840369643 94.90313476433562 H 0.0 **** 0.06
4276 C 154.33392866389585 28.21740146329296 81.59627415843855 C 0.0 **** -0.24
4277 H 154.84360462398138 27.773524317804913 82.45134950288534 H 0.0 **** 0.06
4278 H 153.72013359364718 27.4614621525987 81.1065367595125 H 0.0 **** 0.06
4279 H 155.073197545599 28.59853952767162 80.89149430050009 H 0.0 **** 0.06
4280 H 153.6999485336567 29.036800592316524 81.93605146032081 H 0.0 **** 0.06
4281 C 225.51724111089936 179.77595574422355 142.62724310885832 C 0.0 **** -0.24
4282 H 226.22691465447778 180.6036706666991 142.61730218576776 H 0.0 **** 0.06
4283 H 225.52710254772927 179.27833223489523 141.65678757082034 H 0.0 **** 0.06
4284 H 224.51628794196517 180.15844840716625 142.82950647902607 H 0.0 **** 0.06
4285 H 225.79828284760185 179.06542358596903 143.4040924770145 H 0.0 **** 0.06
4286 C 151.04206554705803 142.87486830696446 312.0366816349318 C 0.0 **** -0.24
4287 H 150.43640138723617 143.7298070636063 312.33963213296937 H 0.0 **** 0.06
4288 H 152.03688975577143 142.9623839418952 312.4722745098929 H 0.0 **** 0.06
4289 H 151.12121803050792 142.85443382201896 310.9493101848564 H 0.0 **** 0.06
4290 H 150.57130246933184 141.95637151341558 312.3847464380659 H 0.0 **** 0.06
4291 C 179.5375163319879 97.809510125613 308.0205598627973 C 0.0 **** -0.24
4292 H 180.465697315311 98.1696333753205 308.4626895392348 H 0.0 **** 0.06
4293 H 178.69324224330302 98.32036399277482 308.4826030812342 H 0.0 **** 0.06
4294 H 179.44883988691822 96.7359521211817 308.1860773776688 H 0.0 **** 0.06
4295 H 179.54324272097193 98.01283641038759 306.9489909255709 H 0.0 **** 0.06
4296 C 303.6011528765898 232.68672205922707 291.5775256329491 C 0.0 **** -0.24
4297 H 303.29750512717726 233.09210934332214 290.61258908475287 H 0.0 **** 0.06
4298 H 303.9215241062902 231.65240016183944 291.45272243826264 H 0.0 **** 0.06
4299 H 302.7596980143255 232.72517170154433 292.26881839770397 H 0.0 **** 0.06
4300 H 304.42677174271864 233.27773049401614 291.9769413042794 H 0.0 **** 0.06
4301 C 303.77620904014657 65.21652948907342 35.22883917549771 C 0.0 **** -0.24
4302 H 303.90623650381536 64.48904202077878 34.42805132033698 H 0.0 **** 0.06
4303 H 302.88455821152695 65.81304378721481 35.035795548229515 H 0.0 **** 0.06
4304 H 304.6481296821346 65.86925028787621 35.2724889549373 H 0.0 **** 0.06
4305 H 303.6658869218186 64.69305098046834 36.17896213328979 H 0.0 **** 0.06
4306 C 161.09777164272498 225.63304420784252 259.43202919654675 C 0.0 **** -0.24
4307 H 162.06648786338684 226.13221038473324 259.43607386317774 H 0.0 **** 0.06
4308 H 160.6382377789402 225.74206963426417 258.4498283856626 H 0.0 **** 0.06
4309 H 160.45387171336301 226.08452869144588 260.1875283673114 H 0.0 **** 0.06
4310 H 161.232936769515 224.57468934694822 259.65491869089516 H 0.0 **** 0.06
4311 C 90.8345250394654 244.43490636910377 270.45503134143564 C 0.0 **** -0.24
4312 H 89.84502851010589 244.69048319683938 270.0756733910769 H 0.0 **** 0.06
4313 H 91.20887177586644 243.5556522289967 269.92953820762386 H 0.0 **** 0.06
4314 H 90.77070178552782 244.22091900863572 271.5219035698017 H 0.0 **** 0.06
4315 H 91.51369239569016 245.27121710043355 270.29265089892544 H 0.0 **** 0.06
4316 C 280.3771688703765 78.86601831232943 244.33467049511708 C 0.0 **** -0.24
4317 H 280.5676988088939 78.90410242079275 243.26302769807498 H 0.0 **** 0.06
4318 H 279.40814575256866 79.31797944620965 244.54832602220048 H 0.0 **** 0.06
4319 H 281.15871372408674 79.41307652919753 244.86235724016592 H 0.0 **** 0.06
4320 H 280.3746447689051 77.82677951477785 244.66604899218612 H 0.0 **** 0.06
4321 C 296.2690394907377 298.0227383747918 7.396144673827223 C 0.0 **** -0.24
4322 H 295.5024598614786 298.74030790310826 7.686601191455054 H 0.0 **** 0.06
4323 H 295.88862578088725 297.00928850229457 7.5289306715846465 H 0.0 **** 0.06
4324 H 297.1526176134689 298.1637145817714 8.01928090576547 H 0.0 **** 0.06
4325 H 296.5345641948063 298.1769596559162 6.350055394599167 H 0.0 **** 0.06
4326 C 190.39422844604252 130.03501717536605 289.69569410577276 C 0.0 **** -0.24
4327 H 190.73058725315457 129.05756073975968 289.34983572486533 H 0.0 **** 0.06
4328 H 190.02032822895484 129.95045944300875 290.71670927385287 H 0.0 **** 0.06
4329 H 189.5981016618793 130.3962381711517 289.04520745513275 H 0.0 **** 0.06
4330 H 191.2290407360174 130.73653959977491 289.67142302425896 H 0.0 **** 0.06
4331 C 136.17718783883984 120.36317670938274 210.85617557870245 C 0.0 **** -0.24
4332 H 136.80081593500722 121.11393477869015 210.3709182566248 H 0.0 **** 0.06
4333 H 135.61376580273617 119.81431796547423 210.10126032478806 H 0.0 **** 0.06
4334 H 135.48481193076353 120.85367740917314 211.541873780986 H 0.0 **** 0.06
4335 H 136.80937939154305 119.6713177791901 211.41281946102487 H 0.0 **** 0.06
4336 C 248.40937515691735 308.94279156985584 196.94126591727326 C 0.0 **** -0.24
4337 H 248.73306381830974 309.65593957784125 196.18316637302803 H 0.0 **** 0.06
4338 H 248.54920012553688 309.37702775368115 197.93147916054153 H 0.0 **** 0.06
4339 H 248.9982299518065 308.0304481554069 196.85628435066383 H 0.0 **** 0.06
4340 H 247.35487296638743 308.70950308378957 196.79229624057712 H 0.0 **** 0.06
4341 C 142.23980461970237 48.17554371030036 291.6335432397034 C 0.0 **** -0.24
4342 H 143.03745063848027 48.88784630049878 291.422462215054 H 0.0 **** 0.06
4343 H 142.6745116629272 47.19952367381825 291.8515662418766 H 0.0 **** 0.06
4344 H 141.58409945031218 48.096255005394255 290.76633889074793 H 0.0 **** 0.06
4345 H 141.66528382317406 48.51823351753589 292.4944183192758 H 0.0 **** 0.06
4346 C 73.9079530590962 210.13426739571278 174.61543498348658 C 0.0 **** -0.24
4347 H 74.851300980379 210.6479271030284 174.80080422171739 H 0.0 **** 0.06
4348 H 74.1020596925386 209.19375104316578 174.099197675362 H 0.0 **** 0.06
4349 H 73.26725391277611 210.76325497158518 173.99798006209392 H 0.0 **** 0.06
4350 H 73.4124323873807 209.93217574039232 175.56497201606777 H 0.0 **** 0.06
4351 C 92.61834943195231 12.10387462920471 61.871797183519845 C 0.0 **** -0.24
4352 H 92.75446591917768 12.17988908084294 60.792887337372235 H 0.0 **** 0.06
4353 H 91.73019459396443 11.509907574872386 62.08470671093005 H 0.0 **** 0.06
4354 H 92.49909008802746 13.102191649383485 62.29386316187873 H 0.0 **** 0.06
4355 H 93.49213591063483 11.624093883577189 62.31361839093512 H 0.0 **** 0.06
4356 C 56.17045817872443 122.89861682740872 153.91830835112893 C 0.0 **** -0.24
4357 H 56.51326688007347 121.87074217077719 154.0370317045248 H 0.0 **** 0.06
4358 H 56.09747054634289 123.37133645959182 154.8981875827924 H 0.0 **** 0.06
4359 H 55.19191195927138 122.90264265044246 153.4388863700039 H 0.0 **** 0.06
4360 H 56.88054144565868 123.44863513079841 153.30051391017372 H 0.0 **** 0.06
4361 C 225.93200597480518 29.053415096497645 180.75590215296546 C 0.0 **** -0.24
4362 H 225.79236793443908 28.689886122901953 181.77377014597903 H 0.0 **** 0.06
4363 H 225.84175770671877 30.140501695606787 180.74435508450597 H 0.0 **** 0.06
4364 H 225.1723081693493 28.617876952398177 180.10695136995395 H 0.0 **** 0.06
4365 H 226.92190463044608 28.76739359832581 180.40074767542887 H 0.0 **** 0.06
4366 C 8.75566938648565 120.69417860396712 270.0160948304686 C 0.0 **** -0.24
4367 H 8.408423761074232 120.22268453074679 269.0967232164748 H 0.0 **** 0.06
4368 H 9.411857068746983 121.52870981503702 269.7717616007803 H 0.0 **** 0.06
4369 H 9.301576671715196 119.96498276985457 270.61438323879 H 0.0 **** 0.06
4370 H 7.898049126082213 121.05973087019436 270.5824881459552 H 0.0 **** 0.06
4371 C 190.39828451268727 72.40894348202528 201.1257683323177 C 0.0 **** -0.24
4372 H 190.01434376272329 73.31609704006053 201.59339775473802 H 0.0 **** 0.06
4373 H 189.57695750111805 71.71382053688092 200.95094733187716 H 0.0 **** 0.06
4374 H 191.13353059260902 71.9455152430171 201.78332047283715 H 0.0 **** 0.06
4375 H 190.86918913006554 72.66238772324593 200.1755861333961 H 0.0 **** 0.06
4376 C 121.56381295377935 105.21066120143911 248.55546574145706 C 0.0 **** -0.24
4377 H 121.78640409700364 104.1438670848946 248.5320169461114 H 0.0 **** 0.06
4378 H 122.36911604365847 105.73849354560366 249.0678877423543 H 0.0 **** 0.06
4379 H 120.62573200640568 105.37440395813672 249.08660018713655 H 0.0 **** 0.06
4380 H 121.47478488051033 105.58500045073899 247.53613877038447 H 0.0 **** 0.06
4381 C 229.59261022762746 264.8951933948943 312.9492314305327 C 0.0 **** -0.24
4382 H 230.25795828366316 264.117223938579 312.5733234040225 H 0.0 **** 0.06
4383 H 229.92796223964422 265.86622705006636 312.58347191499536 H 0.0 **** 0.06
4384 H 229.61038276359233 264.891660931986 314.0391598728525 H 0.0 **** 0.06
4385 H 228.5778154860833 264.7050301223854 312.6006974876949 H 0.0 **** 0.06
4386 C 173.17337081563522 302.26089543816295 234.78424754379043 C 0.0 **** -0.24
4387 H 173.21534459234522 301.39673819181604 234.12215555610237 H 0.0 **** 0.06
4388 H 172.3200607305791 302.1622044107298 235.45596946112417 H 0.0 **** 0.06
4389 H 173.0647499336293 303.1687185146927 234.18998066761435 H 0.0 **** 0.06
4390 H 174.09120733483888 302.31700287192984 235.36830869085924 H 0.0 **** 0.06
4391 C 176.82452429782398 61.04410443411348 298.1109850814346 C 0.0 **** -0.24
4392 H 176.09589977243775 61.4593943137844 298.80682627331817 H 0.0 **** 0.06
4393 H 176.65671364471683 61.460018638870366 297.1173119405789 H 0.0 **** 0.06
4394 H 176.71519789322804 59.96007517748794 298.0745754768303 H 0.0 **** 0.06
4395 H 177.83087716448955 61.29660239252263 298.4468214166192 H 0.0 **** 0.06
4396 C 145.10833754353612 125.70145628751968 250.06749780014138 C 0.0 **** -0.24
4397 H 145.4299296780819 126.1289311603492 251.01750626568534 H 0.0 **** 0.06
4398 H 144.17298801305688 125.15904075708343 250.21212838719265 H 0.0 **** 0.06
4399 H 145.87241455146608 125.01631344680098 249.70041202926058 H 0.0 **** 0.06
4400 H 144.95704281796736 126.50022904705779 249.34176966071456 H 0.0 **** 0.06
4401 C 4.285705951017519 252.6776202053477 185.00513146344224 C 0.0 **** -0.24
4402 H 4.5776126930102805 252.24420507009108 185.9622945266036 H 0.0 **** 0.06
4403 H 4.022987881458164 251.8795544657345 184.31014394924966 H 0.0 **** 0.06
4404 H 5.116777081900864 253.25454253880986 184.5998701342442 H 0.0 **** 0.06
4405 H 3.426021743290903 253.33106394328408 185.14977478049258 H 0.0 **** 0.06
4406 C 132.6584505405777 258.3184627233731 177.56600189365685 C 0.0 **** -0.24
4407 H 132.62460903827116 258.06539316801303 178.62602590571305 H 0.0 **** 0.06
4408 H 132.11354022218194 259.2473163818038 177.39747006861114 H 0.0 **** 0.06
4409 H 132.19873169136937 257.5174945083913 176.9864263150211 H 0.0 **** 0.06
4410 H 133.6955322095192 258.44313406955047 177.2554298170303 H 0.0 **** 0.06
4411 C 259.5792906584885 61.49576177911504 1.502166391959065 C 0.0 **** -0.24
4412 H 259.94051135888833 61.634082306695376 2.520737146829319 H 0.0 **** 0.06
4413 H 258.50633519842194 61.683126542314795 1.4684117870060902 H 0.0 **** 0.06
4414 H 259.7807489895317 60.473383626888705 1.180768182079177 H 0.0 **** 0.06
4415 H 260.09116873757733 62.1920879613381 0.8372317829898321 H 0.0 **** 0.06
4416 C 162.02243650849806 134.26976936302938 303.9524507532766 C 0.0 **** -0.24
4417 H 161.2273795964436 134.88009169031594 303.52245014899063 H 0.0 **** 0.06
4418 H 162.58700459838582 133.79295580784918 303.1509078302366 H 0.0 **** 0.06
4419 H 161.58638132923056 133.5066974996033 304.59580489667616 H 0.0 **** 0.06
4420 H 162.68865204406336 134.90326928446947 304.5387979742534 H 0.0 **** 0.06
4421 C 313.01842597767194 83.88458806804371 278.38480029873335 C 0.0 **** -0.24
4422 H 312.8207200255799 83.83519109022208 279.45612128248507 H 0.0 **** 0.06
4423 H 312.1080647962374 83.6399976244249 277.8366530663006 H 0.0 **** 0.06
4424 H 313.8004514059854 83.1717712099227 278.12626461641685 H 0.0 **** 0.06
4425 H 313.3421244475602 84.8921192920676 278.12188874080437 H 0.0 **** 0.06
4426 C 3.2676841247615727 120.19588658185774 98.90341592211254 C 0.0 **** -0.24
4427 H 2.4269412463814177 120.16280642857319 99.59638667623798 H 0.0 **** 0.06
4428 H 4.125671615049768 119.69205089062876 99.35046672521133 H 0.0 **** 0.06
4429 H 3.5249499395681028 121.23481843803233 98.69410931823649 H 0.0 **** 0.06
4430 H 2.9938246380554148 119.69561880845345 97.9750504326669 H 0.0 **** 0.06
4431 C 214.35536867382473 5.539078186231677 203.74929738561536 C 0.0 **** -0.24
4432 H 214.14966144285438 4.67065942525204 204.3750495253086 H 0.0 **** 0.06
4433 H 213.47211118837146 6.1760509155606655 203.71175670431114 H 0.0 **** 0.06
4434 H 214.60874296060314 5.208693525562296 202.7427101862947 H 0.0 **** 0.06
4435 H 215.1910304368166 6.099358467169395 204.1692828341645 H 0.0 **** 0.06
4436 C 249.83019294091963 242.34338533152106 311.29968756767585 C 0.0 **** -0.24
4437 H 249.05393807356472 243.08085991638274 311.0965448450571 H 0.0 **** 0.06
4438 H 249.70081281955865 241.48731403648026 310.6368624959632 H 0.0 **** 0.06
4439 H 249.75582393509538 242.0150199129334 312.3370711800246 H 0.0 **** 0.06
4440 H 250.8094174805517 242.79037331898246 311.13011343350365 H 0.0 **** 0.06
4441 C 226.93247990284527 223.55216156599533 145.95542073635815 C 0.0 **** -0.24
4442 H 225.87013917863337 223.72572967450833 145.78207527143115 H 0.0 **** 0.06
4443 H 227.5088278984952 224.36681566531104 145.51685028970297 H 0.0 **** 0.06
4444 H 227.22582195458628 222.60845235940963 145.49581686018797 H 0.0 **** 0.06
4445 H 227.122826506516 223.50922038871244 147.0280453575296 H 0.0 **** 0.06
4446 C 237.04336570245792 166.18933176066815 272.05951277962834 C 0.0 **** -0.24
4447 H 237.62729354270667 165.2956514543833 272.27627331758003 H 0.0 **** 0.06
4448 H 237.49944229793883 167.04945663322525 272.549708345346 H 0.0 **** 0.06
4449 H 236.02655275343088 166.0570154826729 272.430120634644 H 0.0 **** 0.06
4450 H 237.01928735332106 166.3553991423799 270.98236738131055 H 0.0 **** 0.06
4451 C 108.17441539189957 143.06268261260882 15.97583928322129 C 0.0 **** -0.24
4452 H 109.03458696401506 142.49786849506995 16.336213022750826 H 0.0 **** 0.06
4453 H 107.30932460731734 142.84460474658982 16.60237845236871 H 0.0 **** 0.06
4454 H 107.95928298134126 142.77735105934 14.945577517829136 H 0.0 **** 0.06
4455 H 108.39663780472168 144.12843560415186 16.018759039492792 H 0.0 **** 0.06
4456 C 53.39942820767487 135.33339919556164 191.96759480315785 C 0.0 **** -0.24
4457 H 54.15048197319982 135.91281428997385 191.43112230864784 H 0.0 **** 0.06
4458 H 52.48465616604665 135.92033097849915 192.057314085232 H 0.0 **** 0.06
4459 H 53.77263845214776 135.08784250506773 192.96192441445095 H 0.0 **** 0.06
4460 H 53.19029694397261 134.41430272848035 191.41998349044798 H 0.0 **** 0.06
4461 C 12.134440545865232 215.24630139653502 154.28952288828282 C 0.0 **** -0.24
4462 H 11.841390863553102 215.87301976026276 153.44802165819328 H 0.0 **** 0.06
4463 H 11.585674739920861 215.5528390697114 155.180420243911 H 0.0 **** 0.06
4464 H 13.204854977754792 215.35328610858983 154.46760873593792 H 0.0 **** 0.06
4465 H 11.907630020608153 214.2042543157083 154.06328138311363 H 0.0 **** 0.06
4466 C 115.56573500468463 90.08642928447657 63.77414685903938 C 0.0 **** -0.24
4467 H 116.34539275252303 89.69296819982162 63.120606861297404 H 0.0 **** 0.06
4468 H 115.10374711865637 90.95476456925414 63.30451255893723 H 0.0 **** 0.06
4469 H 116.00320796369945 90.37824803477733 64.72786147467858 H 0.0 **** 0.06
4470 H 114.81073027802725 89.3178025776757 63.94040629448594 H 0.0 **** 0.06
4471 C 85.74323265157648 85.01249470227555 292.9357466321396 C 0.0 **** -0.24
4472 H 85.44494347115949 84.73003170921999 293.945315635151 H 0.0 **** 0.06
4473 H 84.9131130357033 84.84124716446917 292.2499514316992 H 0.0 **** 0.06
4474 H 86.5987860115489 84.41117532495181 292.62834818646786 H 0.0 **** 0.06
4475 H 86.0170817044816 86.06763736244051 292.9193754670097 H 0.0 **** 0.06
4476 C 123.0767638837496 131.8193122890493 202.84432569757763 C 0.0 **** -0.24
4477 H 122.49388325312009 131.91254599029048 201.9279671446252 H 0.0 **** 0.06
4478 H 122.40205195327377 131.74424581056806 203.6974541681558 H 0.0 **** 0.06
4479 H 123.71365484108026 132.6954935895722 202.96003041123112 H 0.0 **** 0.06
4480 H 123.69635446125088 130.923796115205 202.7903011516879 H 0.0 **** 0.06
4481 C 257.6907105155672 148.97749038087625 28.75040094736366 C 0.0 **** -0.24
4482 H 258.3907532825757 148.18478381474816 28.487490749959335 H 0.0 **** 0.06
4483 H 256.698517943315 148.5507460970991 28.90044284193374 H 0.0 **** 0.06
4484 H 257.6530490667029 149.71072171969433 27.944353323495392 H 0.0 **** 0.06
4485 H 258.0198948056287 149.4637173480986 29.66853785866627 H 0.0 **** 0.06
4486 C 109.95710080598792 268.7928819034303 305.90877050885786 C 0.0 **** -0.24
4487 H 110.89757083357117 269.33963086479025 305.8364375780594 H 0.0 **** 0.06
4488 H 109.15894061192577 269.4796691553131 306.1922963979835 H 0.0 **** 0.06
4489 H 110.04895260266309 268.01062051464913 306.66272920816255 H 0.0 **** 0.06
4490 H 109.72433906182047 268.34212981857183 304.94449467993206 H 0.0 **** 0.06
4491 C 255.5257345907449 88.87933954384638 96.40932155836023 C 0.0 **** -0.24
4492 H 256.3270873444013 88.22925497071566 96.76067773446692 H 0.0 **** 0.06
4493 H 254.96749769362367 89.26077912575255 97.26546101603105 H 0.0 **** 0.06
4494 H 254.85712942692416 88.31365287440593 95.76178386144082 H 0.0 **** 0.06
4495 H 255.95282924228923 89.71283254598958 95.8526376991945 H 0.0 **** 0.06
4496 C 201.41653721225526 131.26430393326368 27.503432571255956 C 0.0 **** -0.24
4497 H 201.11742787571734 132.04403157610432 26.80283371418551 H 0.0 **** 0.06
4498 H 202.45761667314179 131.41407341520224 27.790493559459037 H 0.0 **** 0.06
4499 H 201.30622066407034 130.28907617273194 27.028647960370506 H 0.0 **** 0.06
4500 H 200.78460319176924 131.31046389216903 28.390437082261656 H 0.0 **** 0.06
4501 C 222.5983338780503 221.3597531165196 246.14479236190076 C 0.0 **** -0.24
4502 H 223.0307717596241 221.3039666190092 245.14527662919946 H 0.0 **** 0.06
4503 H 221.51457934275837 221.44261886555512 246.06723127837478 H 0.0 **** 0.06
4504 H 222.9940284343411 222.23403461580048 246.66198481114458 H 0.0 **** 0.06
4505 H 222.85575836668383 220.45987432570726 246.70254243144788 H 0.0 **** 0.06
4506 C 195.04605362235668 219.8680539233436 34.24409524740395 C 0.0 **** -0.24
4507 H 194.1770454728948 220.07994232836464 33.62191803329401 H 0.0 **** 0.06
4508 H 195.94218279407727 220.25967310599145 33.7616117987011 H 0.0 **** 0.06
4509 H 195.14470360438537 218.79130854583465 34.3762236550283 H 0.0 **** 0.06
4510 H 194.92027210968718 220.34351349570298 35.21687968214198 H 0.0 **** 0.06
4511 C 248.37280924226448 202.59894600838504 295.8812820377858 C 0.0 **** -0.24
4512 H 249.291005140516 203.00984042382265 295.4627734750578 H 0.0 **** 0.06
4513 H 247.7750727186231 203.40547445630466 296.306385863562 H 0.0 **** 0.06
4514 H 248.61981084030532 201.87907260911078 296.6624170167517 H 0.0 **** 0.06
4515 H 247.80593804297575 202.1007678432374 295.0946729163535 H 0.0 **** 0.06
4516 C 185.0488327208434 0.8048102717066001 158.99565013038466 C 0.0 **** -0.24
4517 H 185.7642547629896 1.1513177458119657 158.24988996670925 H 0.0 **** 0.06
4518 H 184.04421579529344 0.8323622534746846 158.57555482703168 H 0.0 **** 0.06
4519 H 185.09507123058353 1.4527890488808168 159.87152732458566 H 0.0 **** 0.06
4520 H 185.29371736070755 -0.21624778299438674 159.2867777799505 H 0.0 **** 0.06
4521 C 61.193860484802144 307.7145769900734 194.20424402960464 C 0.0 **** -0.24
4522 H 62.13716249751474 307.73553927532043 193.65826395077727 H 0.0 **** 0.06
4523 H 60.36775221610719 307.61990524947623 193.4992158446516 H 0.0 **** 0.06
4524 H 61.08340952958787 308.6372053481391 194.77330979523788 H 0.0 **** 0.06
4525 H 61.18882335587503 306.8639314866168 194.88651758860158 H 0.0 **** 0.06
4526 C 183.1233502974025 194.81193303731692 48.325813885492266 C 0.0 **** -0.24
4527 H 182.42504290410943 194.00410782712208 48.544776358175426 H 0.0 **** 0.06
4528 H 183.7459694598607 195.00081294072345 49.20014512086166 H 0.0 **** 0.06
4529 H 182.56697965007623 195.71397497023327 48.07370994252315 H 0.0 **** 0.06
4530 H 183.75507126105902 194.52757431947907 47.484082874338156 H 0.0 **** 0.06
4531 C 263.16015696117006 11.70233788386011 266.4974557391435 C 0.0 **** -0.24
4532 H 263.6131165248857 11.948535497876549 267.4575389209167 H 0.0 **** 0.06
4533 H 263.8973780252317 11.829231382555633 265.70460361350837 H 0.0 **** 0.06
4534 H 262.3127160435114 12.36230217907395 266.31481848831027 H 0.0 **** 0.06
4535 H 262.81690694152775 10.667130585870524 266.5131920487551 H 0.0 **** 0.06
4536 C 163.3279598687049 51.26277477508438 156.15957673765627 C 0.0 **** -0.24
4537 H 162.8305508551216 52.22458013524286 156.03042149344031 H 0.0 **** 0.06
4538 H 163.35517631067097 50.73718167293558 155.2042288882853 H 0.0 **** 0.06
4539 H 162.78081040491145 50.6656554120859 156.888693517048 H 0.0 **** 0.06
4540 H 164.34614274903163 51.4261693400621 156.513911596358 H 0.0 **** 0.06
4541 C 71.61291953852998 214.63172866887115 204.41227457258185 C 0.0 **** -0.24
4542 H 70.80037987719047 213.92712570020882 204.58987329387884 H 0.0 **** 0.06
4543 H 71.26272271406862 215.64555043291915 204.60539102270394 H 0.0 **** 0.06
4544 H 71.94298115960106 214.55185336163686 203.37662520596376 H 0.0 **** 0.06
4545 H 72.44510414737971 214.40157210313208 205.07752270807998 H 0.0 **** 0.06
4546 C 282.6769045188447 165.80233865739586 2.7176326278577108 C 0.0 **** -0.24
4547 H 283.60001364477847 166.23244993916433 2.3282367113479268 H 0.0 **** 0.06
4548 H 282.0129795483572 165.55679819384005 1.8892825446052939 H 0.0 **** 0.06
4549 H 282.1890836610966 166.52310335049998 3.373638280702579 H 0.0 **** 0.06
4550 H 282.90762583968535 164.8975209181565 3.2799945052554307 H 0.0 **** 0.06
4551 C 248.37874907630305 294.8173460725719 77.15593436619156 C 0.0 **** -0.24
4552 H 248.27363306998217 295.54271341169806 77.9623363724723 H 0.0 **** 0.06
4553 H 247.3909538705958 294.4742406649716 76.84568661348922 H 0.0 **** 0.06
4554 H 248.96481763348885 293.9672003370357 77.50608894327962 H 0.0 **** 0.06
4555 H 248.88383720960056 295.28385882987095 76.30983024893254 H 0.0 **** 0.06
4556 C 116.25342469665605 284.6820663804555 158.6273486940529 C 0.0 **** -0.24
4557 H 116.65032640718943 284.0804529944244 157.80918873459808 H 0.0 **** 0.06
4558 H 116.30399126437266 284.11113927491493 159.55442183667708 H 0.0 **** 0.06
4559 H 115.21701184601858 284.9431721884114 158.41548669646295 H 0.0 **** 0.06
4560 H 116.8445039656994 285.59242370832254 158.72741958599028 H 0.0 **** 0.06
4561 C 238.53533780370142 71.08977570903673 202.7768440198135 C 0.0 **** -0.24
4562 H 239.3828759564818 71.51560247698285 202.2392224095217 H 0.0 **** 0.06
4563 H 237.95190908764522 70.46656713388532 202.09880540960404 H 0.0 **** 0.06
4564 H 237.90848945637072 71.89415535683418 203.1618867215281 H 0.0 **** 0.06
4565 H 238.8995751129254 70.48270416164698 203.60580340971308 H 0.0 **** 0.06
4566 C 78.69276087324013 66.21657978415186 113.57795164259127 C 0.0 **** -0.24
4567 H 79.66858642839571 66.63157515322854 113.8284205536142 H 0.0 **** 0.06
4568 H 78.52820638083259 66.30186712020952 112.50311107479703 H 0.0 **** 0.06
4569 H 77.9164803438643 66.7661942078621 114.10971086629058 H 0.0 **** 0.06
4570 H 78.65935456515783 65.16699905731946 113.86901806708889 H 0.0 **** 0.06
4571 C 37.14348926991573 114.28019879959871 118.8789355999227 C 0.0 **** -0.24
4572 H 36.99806035274449 114.87425737778563 117.97693605243134 H 0.0 **** 0.06
4573 H 36.58343856356473 113.34827113547342 118.79311374117222 H 0.0 **** 0.06
4574 H 36.787547265416606 114.83966422426991 119.7435760305965 H 0.0 **** 0.06
4575 H 38.20416419755449 114.05802095646146 118.99985730167293 H 0.0 **** 0.06
4576 C 45.41800551871131 141.0984746757792 191.90717035847535 C 0.0 **** -0.24
4577 H 44.93339599462692 141.96370484959323 191.45560009572483 H 0.0 **** 0.06
4578 H 45.57523641103063 141.28274074995264 192.96999669006902 H 0.0 **** 0.06
4579 H 46.37891988690376 140.92706039641612 191.4221754398128 H 0.0 **** 0.06
4580 H 44.785434017468134 140.22063429677613 191.77990327888858 H 0.0 **** 0.06
4581 C 55.90595193613271 226.37760555524773 255.31793139962855 C 0.0 **** -0.24
4582 H 55.83452248659526 225.31746801949788 255.55868767435084 H 0.0 **** 0.06
4583 H 56.71037858878702 226.82827023492206 255.9007885563438 H 0.0 **** 0.06
4584 H 54.963438244382814 226.86944074436278 255.5590961542424 H 0.0 **** 0.06
4585 H 56.11672746331291 226.49559639079482 254.25466652514376 H 0.0 **** 0.06
4586 C 105.20525365850833 140.9643161750571 155.5519134140024 C 0.0 **** -0.24
4587 H 104.25010801297336 141.44627229346477 155.75850344743185 H 0.0 **** 0.06
4588 H 105.02850552409316 139.9561749969513 155.17608125033985 H 0.0 **** 0.06
4589 H 105.79249821131563 140.91278223589148 156.46941842421717 H 0.0 **** 0.06
4590 H 105.74888257101995 141.5404899926383 154.80440643802865 H 0.0 **** 0.06
4591 C 116.88134938859434 145.2049372832721 35.12410051517932 C 0.0 **** -0.24
4592 H 117.2791285626015 144.59441439940562 34.31333551355365 H 0.0 **** 0.06
4593 H 116.12314482173778 145.88098832646938 34.730435471928445 H 0.0 **** 0.06
4594 H 117.68961902437965 145.7844345588264 35.57128219847314 H 0.0 **** 0.06
4595 H 116.43598055197387 144.55843569963804 35.88051617695402 H 0.0 **** 0.06
4596 C 227.32722746222464 110.08276846084217 257.7620875419471 C 0.0 **** -0.24
4597 H 226.43997394620115 110.13384892326818 258.39292375933 H 0.0 **** 0.06
4598 H 228.2093498584769 110.32264078686202 258.35548344166943 H 0.0 **** 0.06
4599 H 227.2334894883878 110.79783276024088 256.944856491795 H 0.0 **** 0.06
4600 H 227.42511115199102 109.07665725111215 257.3549446129398 H 0.0 **** 0.06
4601 C 10.52947635337884 98.13559012681094 199.0108366326752 C 0.0 **** -0.24
4602 H 10.752835084589023 97.13425147414583 199.3791722546681 H 0.0 **** 0.06
4603 H 10.962821434328802 98.87485991354063 199.6848964042954 H 0.0 **** 0.06
4604 H 9.44913812064351 98.27360401720284 198.9667025302344 H 0.0 **** 0.06
4605 H 10.952419823041723 98.25941138736067 198.01491371511634 H 0.0 **** 0.06
4606 C 165.75446060616326 136.5528033619781 242.85690257589758 C 0.0 **** -0.24
4607 H 165.67208581615745 136.18020978047792 241.83549875251182 H 0.0 **** 0.06
4608 H 164.75904478443294 136.65704856222806 243.28770952392242 H 0.0 **** 0.06
4609 H 166.25189167921218 137.52248302357035 242.84975905490202 H 0.0 **** 0.06
4610 H 166.33737898648832 135.84994019708455 243.452880668867 H 0.0 **** 0.06
4611 C 236.4608082984637 305.2394330935514 68.7296280593223 C 0.0 **** -0.24
4612 H 236.73360736220351 304.39867857999127 69.36728695541342 H 0.0 **** 0.06
4613 H 235.6214997029205 305.77505821288185 69.17456195140107 H 0.0 **** 0.06
4614 H 236.17535782863695 304.86932286129024 67.74463120765017 H 0.0 **** 0.06
4615 H 237.31158688014153 305.9125574660176 68.63239264234625 H 0.0 **** 0.06
4616 C 271.947084130519 10.520113909478496 12.050164144239531 C 0.0 **** -0.24
4617 H 271.64371507560827 9.931702609325455 11.18438951590204 H 0.0 **** 0.06
4618 H 272.3185298679523 11.489612787242109 11.716530595128518 H 0.0 **** 0.06
4619 H 272.73443121417677 9.993806878967973 12.587938093482379 H 0.0 **** 0.06
4620 H 271.0910538209935 10.665541228635817 12.708867683564378 H 0.0 **** 0.06
4621 C 58.67440988849731 113.94351121488137 147.0304466779225 C 0.0 **** -0.24
4622 H 58.478276066855926 114.33361406449472 148.02903049483223 H 0.0 **** 0.06
4623 H 59.7290544203758 113.67843603314807 146.94466545948814 H 0.0 **** 0.06
4624 H 58.42814157461311 114.70328565905726 146.2884533739754 H 0.0 **** 0.06
4625 H 58.06194143515057 113.05763449338369 146.86052851850712 H 0.0 **** 0.06
4626 C 274.9891720219015 300.44905798095806 47.24688553819786 C 0.0 **** -0.24
4627 H 274.0771569987266 300.9303191658153 47.60011438700303 H 0.0 **** 0.06
4628 H 275.4083106189975 301.0272858136994 46.421931132827524 H 0.0 **** 0.06
4629 H 274.7594242433452 299.4404709722336 46.90357146465294 H 0.0 **** 0.06
4630 H 275.7126512736366 300.4001599745159 48.061422285394514 H 0.0 **** 0.06
4631 C 195.2752637719422 30.04688155074001 70.48210907318256 C 0.0 **** -0.24
4632 H 195.5006198925259 29.866466869968633 71.53391348403349 H 0.0 **** 0.06
4633 H 194.2234171260144 29.83060755484334 70.2948644668424 H 0.0 **** 0.06
4634 H 195.89591549682848 29.40086578181075 69.86180156142967 H 0.0 **** 0.06
4635 H 195.48076539134263 31.08911647362123 70.24080057013856 H 0.0 **** 0.06
4636 C 123.98079064422433 169.37843001287087 281.44145711173053 C 0.0 **** -0.24
4637 H 124.39474874078581 169.95911349702794 280.61710783170565 H 0.0 **** 0.06
4638 H 124.58207394724116 169.53818023791246 282.3359701642118 H 0.0 **** 0.06
4639 H 123.989756738995 168.32037246756306 281.1812395370036 H 0.0 **** 0.06
4640 H 122.95579169634212 169.69669251129199 281.63010887075467 H 0.0 **** 0.06
4641 C 204.18169445496488 279.65600538347627 86.60480208424144 C 0.0 **** -0.24
4642 H 203.88277820904585 280.44691778216014 87.29385796922455 H 0.0 **** 0.06
4643 H 203.2925029152446 279.1919740134867 86.17812346628426 H 0.0 **** 0.06
4644 H 204.76048473434201 278.9062469851687 87.14319274319143 H 0.0 **** 0.06
4645 H 204.78986003957135 280.0811425020558 85.80678491709699 H 0.0 **** 0.06
4646 C 279.56290949111417 13.890796434703432 17.718735784229636 C 0.0 **** -0.24
4647 H 279.32724265823333 13.75101758214717 18.7738079935516 H 0.0 **** 0.06
4648 H 278.701502566774 13.609602369257772 17.113290199399955 H 0.0 **** 0.06
4649 H 280.41551269073284 13.26513988687607 17.451713266072602 H 0.0 **** 0.06
4650 H 279.80992936883166 14.936945197763805 17.537638307352722 H 0.0 **** 0.06
4651 C 139.98182623788523 308.1214017736372 249.71414138960262 C 0.0 **** -0.24
4652 H 139.96409348926187 307.0668838720542 249.43765830188534 H 0.0 **** 0.06
4653 H 139.10802838192467 308.62112081272676 249.29442655226072 H 0.0 **** 0.06
4654 H 140.88831694158088 308.5837318751039 249.32228320671328 H 0.0 **** 0.06
4655 H 139.9664681421585 308.21295716943075 250.79919626319264 H 0.0 **** 0.06
4656 C 133.1240951330571 297.2293663146811 180.6022201961128 C 0.0 **** -0.24
4657 H 133.12314637926195 298.04463668787537 179.87901644436397 H 0.0 **** 0.06
4658 H 132.2488905424489 297.31471676434705 181.24713226772474 H 0.0 **** 0.06
4659 H 134.02940719538168 297.28237409709845 181.20834196797324 H 0.0 **** 0.06
4660 H 133.09583057219857 296.2753256577864 180.07540534111934 H 0.0 **** 0.06
4661 C 225.3917920273716 170.8468254003228 10.991777923325003 C 0.0 **** -0.24
4662 H 225.97360210948656 170.21754090032124 11.664590967336366 H 0.0 **** 0.06
4663 H 226.06154558015493 171.3413228287306 10.287120681331402 H 0.0 **** 0.06
4664 H 224.8544532222184 171.5973635282324 11.570471168210346 H 0.0 **** 0.06
4665 H 224.67951976493032 170.23047953006102 10.444015804788165 H 0.0 **** 0.06
4666 C 227.50679267047002 218.18032562097625 306.8392512631613 C 0.0 **** -0.24
4667 H 227.60047266383043 218.4101860739293 305.7780577938371 H 0.0 **** 0.06
4668 H 226.60712936702197 218.65248099131435 307.23562684596953 H 0.0 **** 0.06
4669 H 228.37971812401557 218.55857340856963 307.37138669168127 H 0.0 **** 0.06
4670 H 227.43871240484776 217.1006121691616 306.9725677652748 H 0.0 **** 0.06
4671 C 100.13056404757722 3.9244585906147904 19.164843869076037 C 0.0 **** -0.24
4672 H 100.64200649463376 3.602486300253588 18.25863483683878 H 0.0 **** 0.06
4673 H 99.62365115588727 3.0725973442246755 19.618194822881833 H 0.0 **** 0.06
4674 H 99.39943090351062 4.693347688421284 18.915624628737987 H 0.0 **** 0.06
4675 H 100.85858239534056 4.330572945051699 19.868197815061706 H 0.0 **** 0.06
4676 C 234.9845946070471 144.3953430257387 41.65343405778529 C 0.0 **** -0.24
4677 H 234.02145191829135 144.39707193250442 41.14456814704394 H 0.0 **** 0.06
4678 H 235.61397063207275 145.18461326374918 41.242619428992924 H 0.0 **** 0.06
4679 H 235.4706316552064 143.43070796282794 41.50896769144458 H 0.0 **** 0.06
4680 H 234.8328443252629 144.5686562404285 42.71920126277851 H 0.0 **** 0.06
4681 C 66.93338885340165 136.52386679605956 95.3206759424452 C 0.0 **** -0.24
4682 H 67.04889659372131 135.5709998642869 95.83721628185904 H 0.0 **** 0.06
4683 H 67.81377976488989 136.71280770936116 94.70510504364532 H 0.0 **** 0.06
4684 H 66.8230708413688 137.32293980501373 96.05345326911925 H 0.0 **** 0.06
4685 H 66.04739721495247 136.4873695758291 94.68683990744097 H 0.0 **** 0.06
4686 C 282.44150435797053 151.96464306344825 66.7664544998851 C 0.0 **** -0.24
4687 H 282.92247025227016 152.20626079738935 67.71402561955742 H 0.0 **** 0.06
4688 H 281.659033044526 151.2240277260958 66.93501285929747 H 0.0 **** 0.06
4689 H 283.1825674120081 151.5601130394612 66.07593196839176 H 0.0 **** 0.06
4690 H 282.0035047083438 152.8666390567402 66.34037131559808 H 0.0 **** 0.06
4691 C 185.05881785531784 122.48069282151931 97.84662202502727 C 0.0 **** -0.24
4692 H 184.38937412396928 122.99617571310245 98.53545569884577 H 0.0 **** 0.06
4693 H 185.03437096151987 121.4100300724192 98.05010907131998 H 0.0 **** 0.06
4694 H 186.0738810140955 122.85352971060442 97.97906741893362 H 0.0 **** 0.06
4695 H 184.73548740032646 122.66321137317917 96.82129683279726 H 0.0 **** 0.06
4696 C 170.14815374559475 246.7090177212208 190.1433886046148 C 0.0 **** -0.24
4697 H 169.19865431092296 247.23741868944114 190.23212187154576 H 0.0 **** 0.06
4698 H 170.0946656349558 245.771947487695 190.69830008669123 H 0.0 **** 0.06
4699 H 170.94722339102782 247.3280775831394 190.54962367581106 H 0.0 **** 0.06
4700 H 170.3489298601816 246.4987139290485 189.09244968115468 H 0.0 **** 0.06
4701 C 68.35267686969055 283.2465973076037 185.12276124401126 C 0.0 **** -0.24
4702 H 67.72999786171596 283.6562124367922 184.32739676845256 H 0.0 **** 0.06
4703 H 68.61800034773364 284.04121384732406 185.8204770594196 H 0.0 **** 0.06
4704 H 69.26048595828507 282.8227216210346 184.69247829678403 H 0.0 **** 0.06
4705 H 67.80193802621781 282.46792700002817 185.6504151344904 H 0.0 **** 0.06
4706 C 213.90448369940174 300.5065353612015 10.237152284963884 C 0.0 **** -0.24
4707 H 213.0479374624556 300.65718175749464 9.580310176181342 H 0.0 **** 0.06
4708 H 214.06850422061905 299.43808987355624 10.379801721541071 H 0.0 **** 0.06
4709 H 213.70984763478674 300.97721485253163 11.20096189783078 H 0.0 **** 0.06
4710 H 214.79049651207433 300.95379596878786 9.786722940976915 H 0.0 **** 0.06
4711 C 102.17668798371133 152.25198851593092 4.3391033674712105 C 0.0 **** -0.24
4712 H 102.3798021404829 152.10176088547985 5.399137633700434 H 0.0 **** 0.06
4713 H 102.80747067280566 153.0545347186063 3.95774770868843 H 0.0 **** 0.06
4714 H 101.12813263407529 152.51865040130605 4.204792273762791 H 0.0 **** 0.06
4715 H 102.3894275686375 151.3315070493246 3.7944813946025846 H 0.0 **** 0.06
4716 C 86.59528142974361 274.0444412503696 226.33868583914773 C 0.0 **** -0.24
4717 H 85.76637208348112 273.8071419039599 227.0051043736814 H 0.0 **** 0.06
4718 H 87.51420522494342 274.13384732740593 226.91885388896583 H 0.0 **** 0.06
4719 H 86.39281539507752 274.9873186991792 225.829567997909 H 0.0 **** 0.06
4720 H 86.70735679346873 273.250383601668 225.6012186140319 H 0.0 **** 0.06
4721 C 195.12535580788085 195.06763533547183 90.19127623846902 C 0.0 **** -0.24
4722 H 194.91599483263604 195.68628336713846 91.06343788687025 H 0.0 **** 0.06
4723 H 194.33303968473638 194.32754018084745 90.0720592920047 H 0.0 **** 0.06
4724 H 196.07989650725278 194.5603525438251 90.32638569905751 H 0.0 **** 0.06
4725 H 195.1705615622692 195.6970325085503 89.30187026069646 H 0.0 **** 0.06
4726 C 7.835225848725187 99.13310973292135 289.25703859166777 C 0.0 **** -0.24
4727 H 6.754137126657795 99.12089693333067 289.39144977936996 H 0.0 **** 0.06
4728 H 8.068484851013451 99.33000107800987 288.2104329409666 H 0.0 **** 0.06
4729 H 8.248322248022134 98.16616456873368 289.5450277692177 H 0.0 **** 0.06
4730 H 8.270252225279563 99.91458793548489 289.8801069834734 H 0.0 **** 0.06
4731 C 47.64117623834457 192.40144268739095 39.9685908402289 C 0.0 **** -0.24
4732 H 47.35809478417701 192.38265913457894 38.91650984759622 H 0.0 **** 0.06
4733 H 48.60423001623721 192.90035629948136 40.07669254404533 H 0.0 **** 0.06
4734 H 47.71559160753131 191.3803707768554 40.34259866883315 H 0.0 **** 0.06
4735 H 46.88523633130015 192.94301166863113 40.53811805638668 H 0.0 **** 0.06
4736 C 244.4093883054201 172.70750173414524 212.18905484007593 C 0.0 **** -0.24
4737 H 243.44020438638387 172.64036696570417 212.68346641420396 H 0.0 **** 0.06
4738 H 244.34793980472642 172.2418368935452 211.20447234146144 H 0.0 **** 0.06
4739 H 245.15941303143876 172.1921028325766 212.788923352478 H 0.0 **** 0.06
4740 H 244.68868351729657 173.75539336912937 212.07892920100687 H 0.0 **** 0.06
4741 C 127.25824477493416 39.555775399364165 160.8678497447621 C 0.0 **** -0.24
4742 H 128.33846706551867 39.57948420002353 161.00769980973996 H 0.0 **** 0.06
4743 H 127.02200790790693 39.7638798571374 159.82420803030357 H 0.0 **** 0.06
4744 H 126.79272619835353 40.309004266778885 161.50282696820187 H 0.0 **** 0.06
4745 H 126.87841778802184 38.56930829813672 161.135606112659 H 0.0 **** 0.06
4746 C 162.3211902722092 45.752957769747695 90.51363914590394 C 0.0 **** -0.24
4747 H 162.88705381060413 46.540240626605254 90.01506667238414 H 0.0 **** 0.06
4748 H 161.3110250894007 46.106212544499584 90.72117882492049 H 0.0 **** 0.06
4749 H 162.81374899272083 45.4889285445812 91.4498382850633 H 0.0 **** 0.06
4750 H 162.2748343928339 44.87535977798345 89.86891808471222 H 0.0 **** 0.06
4751 C 104.05604301352835 295.0176780682131 112.31462155669632 C 0.0 **** -0.24
4752 H 104.3663675493878 295.4725084644628 111.37448362096075 H 0.0 **** 0.06
4753 H 103.25211970414824 295.6068588535069 112.75508456514169 H 0.0 **** 0.06
4754 H 104.90304207828635 294.98797153296806 113.00142390416732 H 0.0 **** 0.06
4755 H 103.7044516096935 294.0028825913803 112.12819201169324 H 0.0 **** 0.06
4756 C 74.57881248043407 56.16615133141707 288.1624443660955 C 0.0 **** -0.24
4757 H 74.85402078955181 55.18437832297491 287.7748253464758 H 0.0 **** 0.06
4758 H 74.90743954559807 56.25362325405345 289.19743772797335 H 0.0 **** 0.06
4759 H 73.49585998185324 56.284946059460566 288.1120851132684 H 0.0 **** 0.06
4760 H 75.05680276865192 56.94022661153605 287.5623176346923 H 0.0 **** 0.06
4761 C 227.19862383717725 50.390095923606225 28.93436517096623 C 0.0 **** -0.24
4762 H 226.90976906815638 50.39559591648916 27.883660636149756 H 0.0 **** 0.06
4763 H 226.68846594911662 49.57469111522565 29.4473206060797 H 0.0 **** 0.06
4764 H 226.91889678971123 51.33867727102114 29.392843694876575 H 0.0 **** 0.06
4765 H 228.27608445730183 50.25202241110577 29.013653624899973 H 0.0 **** 0.06
4766 C 262.4736576682923 200.53731673991928 287.23794663581936 C 0.0 **** -0.24
4767 H 262.58420181391887 199.60067675131887 286.6903337439138 H 0.0 **** 0.06
4768 H 261.79524321038605 200.38948812753648 288.07747440142344 H 0.0 **** 0.06
4769 H 262.0697858532985 201.30023355078288 286.5726257768621 H 0.0 **** 0.06
4770 H 263.4469210653368 200.8578920955391 287.60917722456827 H 0.0 **** 0.06
4771 C 253.46140268512775 38.33690313256071 170.5484310884903 C 0.0 **** -0.24
4772 H 252.68839584710787 38.52089327376814 171.29399289172017 H 0.0 **** 0.06
4773 H 253.86233759334633 37.332013738364566 170.68287385365176 H 0.0 **** 0.06
4774 H 254.26127512202592 39.066882204278926 170.66701432209976 H 0.0 **** 0.06
4775 H 253.03177681832352 38.4267626534338 169.55108549761405 H 0.0 **** 0.06
4776 C 16.00812765927077 193.16580846763765 154.83624356451077 C 0.0 **** -0.24
4777 H 15.652598039287454 192.15034852497013 155.0112725464308 H 0.0 **** 0.06
4778 H 15.203976508530957 193.87345440678496 155.04249949749965 H 0.0 **** 0.06
4779 H 16.3230606162233 193.2672187363986 153.79756000298562 H 0.0 **** 0.06
4780 H 16.85276257075003 193.37392022621992 155.49390663730048 H 0.0 **** 0.06
4781 C 76.55227455165846 267.47540115123536 198.18599207358005 C 0.0 **** -0.24
4782 H 76.15276465944902 268.0320014450939 199.03467064400076 H 0.0 **** 0.06
4783 H 77.16464876214161 268.13784809850927 197.57452807903047 H 0.0 **** 0.06
4784 H 75.72879664790617 267.08538703183495 197.58844502523988 H 0.0 **** 0.06
4785 H 77.16234345533394 266.64848751220853 198.5499592669252 H 0.0 **** 0.06
4786 C 43.05259519661655 271.46514865927486 124.34754291184115 C 0.0 **** -0.24
4787 H 42.414323378123754 270.6853161805451 124.76431592662487 H 0.0 **** 0.06
4788 H 42.599336010136426 271.8562615801015 123.43586251301531 H 0.0 **** 0.06
4789 H 44.03231788769608 271.0468465264473 124.11546937425206 H 0.0 **** 0.06
4790 H 43.16357776304318 272.2704969995955 125.07380407133272 H 0.0 **** 0.06
4791 C 298.21725138319357 185.7162107824377 139.90691493982618 C 0.0 **** -0.24
4792 H 297.9230182933643 186.1046682069407 138.9313853027737 H 0.0 **** 0.06
4793 H 297.36696940947263 185.21247072997755 140.36841020729776 H 0.0 **** 0.06
4794 H 298.5405621129031 186.53989238799585 140.54357351050572 H 0.0 **** 0.06
4795 H 299.03647157960273 185.00794298481674 139.78407624285956 H 0.0 **** 0.06
4796 C 309.9177852246645 233.76848460238935 125.17735173585277 C 0.0 **** -0.24
4797 H 309.06882891016096 233.10276778545216 125.02292167373554 H 0.0 **** 0.06
4798 H 310.201532234102 233.75756281335708 126.23028654129354 H 0.0 **** 0.06
4799 H 309.64286372540965 234.7812211483016 124.88561692516873 H 0.0 **** 0.06
4800 H 310.75845143479813 233.4306207833197 124.57184474978374 H 0.0 **** 0.06
4801 C 146.837085595914 288.9790418928196 307.5816307797646 C 0.0 **** -0.24
4802 H 147.4150648225305 289.7644305180005 308.0677532612038 H 0.0 **** 0.06
4803 H 146.21490293724065 288.47478058925805 308.32147510790423 H 0.0 **** 0.06
4804 H 147.51538477161571 288.2578597501751 307.12527795914735 H 0.0 **** 0.06
4805 H 146.2031946391571 289.41820435677624 306.81161458973963 H 0.0 **** 0.06
4806 C 106.79701970153056 15.218837161875257 25.993943513411295 C 0.0 **** -0.24
4807 H 106.40952299164965 14.484707462188425 25.286489458001938 H 0.0 **** 0.06
4808 H 107.59114369061876 15.796130797495621 25.519310494112688 H 0.0 **** 0.06
4809 H 107.19421649675388 14.704057116199493 26.868695226592195 H 0.0 **** 0.06
4810 H 105.99290303789161 15.887426636612119 26.299341368644605 H 0.0 **** 0.06
4811 C 10.922618105341428 42.11140486126126 50.772567582950785 C 0.0 **** -0.24
4812 H 10.018668177118144 41.92792263731144 50.19275800593158 H 0.0 **** 0.06
4813 H 11.24501795820521 43.142622580089295 50.627879290341895 H 0.0 **** 0.06
4814 H 11.710230433021152 41.4349672102141 50.44163817600693 H 0.0 **** 0.06
4815 H 10.71768251551569 41.94030668806391 51.82929515824625 H 0.0 **** 0.06
4816 C 272.48117108034455 242.03003948551748 212.46260468578208 C 0.0 **** -0.24
4817 H 271.65956082609836 241.78616805091292 213.13676910752864 H 0.0 **** 0.06
4818 H 273.2723026047252 241.28772942740926 212.57159111523936 H 0.0 **** 0.06
4819 H 272.87273966893713 243.01717817690994 212.7096807824304 H 0.0 **** 0.06
4820 H 272.1199166066433 242.02868060998242 211.43457126935868 H 0.0 **** 0.06
4821 C 98.37608330871788 32.58646225261006 163.2612627247397 C 0.0 **** -0.24
4822 H 98.91085027679546 33.50525954320025 163.5034510436709 H 0.0 **** 0.06
4823 H 97.62691263412802 32.792320412647086 162.49586670021438 H 0.0 **** 0.06
4824 H 97.88508137354137 32.20589543787821 164.1569235697076 H 0.0 **** 0.06
4825 H 99.0814511488471 31.84229732810965 162.8898059565787 H 0.0 **** 0.06
4826 C 100.05310656312975 22.71025852301665 230.664876710577 C 0.0 **** -0.24
4827 H 99.87351771441604 22.20668498381727 229.71469205030306 H 0.0 **** 0.06
4828 H 100.61085241574176 22.04640391765551 231.32683062526382 H 0.0 **** 0.06
4829 H 99.09987015465799 22.96745114108319 231.1260997088751 H 0.0 **** 0.06
4830 H 100.62979720532894 23.618722359832674 230.49136962195428 H 0.0 **** 0.06
4831 C 218.55472589035477 179.12447060097793 52.161099921840616 C 0.0 **** -0.24
4832 H 217.74233318860027 178.8435109012156 51.49062986527332 H 0.0 **** 0.06
4833 H 218.18465293864432 179.83269118212547 52.90251543918228 H 0.0 **** 0.06
4834 H 219.35727518106933 179.58578039845685 51.58552780907536 H 0.0 **** 0.06
4835 H 218.93331995381754 178.23505051910615 52.6649985266946 H 0.0 **** 0.06
4836 C 49.33561221250403 151.07412507793458 278.9633860801732 C 0.0 **** -0.24
4837 H 49.266727490127494 151.86525548694948 278.21725880051133 H 0.0 **** 0.06
4838 H 50.32833419711238 151.0877969855627 279.41483540890044 H 0.0 **** 0.06
4839 H 49.166315179466864 150.10883994975546 278.48603768880196 H 0.0 **** 0.06
4840 H 48.582889185207534 151.23513860095193 279.7347673328755 H 0.0 **** 0.06
4841 C 98.2023070341726 127.44015926790172 60.49128985695822 C 0.0 **** -0.24
4842 H 99.06721540863307 127.81052347573726 59.9404221687285 H 0.0 **** 0.06
4843 H 98.35264254925224 127.60885686176329 61.55826254213903 H 0.0 **** 0.06
4844 H 98.08272201576582 126.37367258665361 60.30406559054916 H 0.0 **** 0.06
4845 H 97.30828434167088 127.97062161954332 60.161361872233755 H 0.0 **** 0.06
4846 C 5.448201047809121 227.30292899008782 232.05082150432617 C 0.0 **** -0.24
4847 H 6.072854059126541 227.2017691264275 231.16303625463945 H 0.0 **** 0.06
4848 H 5.77126942575525 226.5872110644736 232.8064100309275 H 0.0 **** 0.06
4849 H 4.4084311396750735 227.10831607386314 231.7863773615873 H 0.0 **** 0.06
4850 H 5.539680025067739 228.31516471115026 232.44543244486167 H 0.0 **** 0.06
4851 C 25.99720921497942 106.13927624778978 125.43783957218366 C 0.0 **** -0.24
4852 H 25.773406544173667 107.02956720120764 126.02500541748879 H 0.0 **** 0.06
4853 H 27.075448159059988 105.97536452537068 125.42376535121244 H 0.0 **** 0.06
4854 H 25.63629207193071 106.27624945092239 124.41819918946973 H 0.0 **** 0.06
4855 H 25.50369008475343 105.27592381365844 125.88438833056375 H 0.0 **** 0.06
4856 C 84.96950321371611 212.4539962612685 109.22690240656883 C 0.0 **** -0.24
4857 H 85.71330818485194 211.93244346122208 108.62309184067138 H 0.0 **** 0.06
4858 H 85.1503168624703 212.24921004682813 110.28177082370917 H 0.0 **** 0.06
4859 H 83.97298397374863 212.1071222444654 108.95366593305488 H 0.0 **** 0.06
4860 H 85.04337021303508 213.52615850705854 109.04607615520646 H 0.0 **** 0.06
4861 C 35.257176484270275 0.5386041960693291 214.68315521298894 C 0.0 **** -0.24
4862 H 35.94494573866487 0.27382759618998875 213.87972621351932 H 0.0 **** 0.06
4863 H 35.760033227301165 1.2030650540038579 215.38650236664844 H 0.0 **** 0.06
4864 H 34.9376571267845 -0.3646921707177455 215.2005935121336 H 0.0 **** 0.06
4865 H 34.38777469347738 1.0449211025986642 214.26300991772376 H 0.0 **** 0.06
4866 C 34.51850765485955 262.33916845335864 301.8199874614129 C 0.0 **** -0.24
4867 H 35.49446687050053 261.8914912806132 301.63012669083787 H 0.0 **** 0.06
4868 H 34.190142080640385 262.07953599938025 302.82707752420674 H 0.0 **** 0.06
4869 H 33.798735308115994 261.963462966871 301.09398229741066 H 0.0 **** 0.06
4870 H 34.59352295480903 263.42322559765364 301.7309696797646 H 0.0 **** 0.06
4871 C 143.30982190306878 84.92999269444567 194.04915371628175 C 0.0 **** -0.24
4872 H 142.89926950361962 85.06656972978891 195.0494600640522 H 0.0 **** 0.06
4873 H 143.20060696315454 83.88676837985653 193.75138118574512 H 0.0 **** 0.06
4874 H 144.36621608397252 85.1983832093839 194.04961797315406 H 0.0 **** 0.06
4875 H 142.77316202634574 85.56683706106574 193.3460919989937 H 0.0 **** 0.06
4876 C 61.31642221247279 232.63094662514072 278.1763732583942 C 0.0 **** -0.24
4877 H 62.05677960242565 232.23033949646089 278.86818696855516 H 0.0 **** 0.06
4878 H 61.75743645136916 232.7192556339355 277.1829487193027 H 0.0 **** 0.06
4879 H 60.99306989623739 233.6141151199858 278.51894929698955 H 0.0 **** 0.06
4880 H 60.45840289985901 231.96007625018063 278.13540804872946 H 0.0 **** 0.06
4881 C 255.24253196789564 23.666152122483197 215.6603511219164 C 0.0 **** -0.24
4882 H 254.2457996033005 23.631392453695554 215.22114763103974 H 0.0 **** 0.06
4883 H 255.85659907720037 22.873482677941553 215.23125195700595 H 0.0 **** 0.06
4884 H 255.1688821625965 23.525112929580587 216.73930293190105 H 0.0 **** 0.06
4885 H 255.69801625293366 24.633508875693053 215.4499744945398 H 0.0 **** 0.06
4886 C 290.4225367358383 12.842824014696632 42.19579085052257 C 0.0 **** -0.24
4887 H 289.7163970338664 12.111514817769319 42.590733802974114 H 0.0 **** 0.06
4888 H 290.13172878171736 13.116835518936043 41.18175151276637 H 0.0 **** 0.06
4889 H 291.42266363539864 12.410839334255016 42.184181991252416 H 0.0 **** 0.06
4890 H 290.4169810097302 13.730896834201118 42.82819590547399 H 0.0 **** 0.06
4891 C 146.90660930897425 309.1595504213821 130.53637867130263 C 0.0 **** -0.24
4892 H 146.1893158871258 308.3618470609291 130.34142778265175 H 0.0 **** 0.06
4893 H 146.3977632244008 310.1229783302946 130.49450170930405 H 0.0 **** 0.06
4894 H 147.69502202779773 309.13052495749247 129.784010902888 H 0.0 **** 0.06
4895 H 147.3430741636568 309.0210556177305 131.525146574562 H 0.0 **** 0.06
4896 C 144.22933355797656 54.509154543962524 104.05648828968282 C 0.0 **** -0.24
4897 H 143.87792335148515 54.1520048156149 105.02397642069252 H 0.0 **** 0.06
4898 H 145.29691043413484 54.309581671929095 103.96064135422782 H 0.0 **** 0.06
4899 H 144.0520862704689 55.5825276032468 103.97923525755562 H 0.0 **** 0.06
4900 H 143.6911828326207 53.99436354132783 103.26112462042823 H 0.0 **** 0.06
4901 C 2.900421859681259 75.5683180463179 230.58731125094326 C 0.0 **** -0.24
4902 H 3.727375233904482 75.9399005255678 231.19363619225686 H 0.0 **** 0.06
4903 H 1.959585738432665 75.74624066097314 231.10845737971124 H 0.0 **** 0.06
4904 H 3.0257818065136917 74.49897636212057 230.41884881066184 H 0.0 **** 0.06
4905 H 2.8906688013618975 76.08874758444384 229.62959713708025 H 0.0 **** 0.06
4906 C 102.55017347123444 215.06459624024922 83.60669919849772 C 0.0 **** -0.24
4907 H 102.08531231034888 216.00313421396697 83.90882652845514 H 0.0 **** 0.06
4908 H 102.13594724771968 214.24786168749233 84.19909489618757 H 0.0 **** 0.06
4909 H 103.62636346174102 215.12300820492464 83.77038944853885 H 0.0 **** 0.06
4910 H 102.35202883981421 214.88349131621612 82.5505164211672 H 0.0 **** 0.06
4911 C 39.72359637704844 15.204696800664422 146.06170669624584 C 0.0 **** -0.24
4912 H 40.50966355345503 15.956195803120636 145.98433747860793 H 0.0 **** 0.06
4913 H 40.11577344262949 14.236151018116459 145.75161063690956 H 0.0 **** 0.06
4914 H 38.889858104542526 15.483335896193395 145.4174000174136 H 0.0 **** 0.06
4915 H 39.37990392103609 15.143807859486103 147.0943970580045 H 0.0 **** 0.06
4916 C 129.22001764103132 295.4656509297131 42.334421165221414 C 0.0 **** -0.24
4917 H 129.57788071731622 295.86492828238596 41.38511512037962 H 0.0 **** 0.06
4918 H 129.0089038287064 294.40227164954104 42.224558470964695 H 0.0 **** 0.06
4919 H 128.3096020298605 295.989523988745 42.62824558522007 H 0.0 **** 0.06
4920 H 129.9831451242139 295.6082672070344 43.09966582720605 H 0.0 **** 0.06
4921 C 24.223413241498548 193.36810016989546 152.438485048759 C 0.0 **** -0.24
4922 H 24.421666511205416 193.77334994230836 153.430818971213 H 0.0 **** 0.06
4923 H 24.953099739802752 193.7643150775363 151.7316599535091 H 0.0 **** 0.06
4924 H 23.21966369379325 193.65313260317578 152.12373164344376 H 0.0 **** 0.06
4925 H 24.29951724333813 192.28142335567628 152.4686683203368 H 0.0 **** 0.06
4926 C 297.6311897478757 210.78906658715286 11.135881139383557 C 0.0 **** -0.24
4927 H 297.70403071938875 209.73727922155155 11.413063176458891 H 0.0 **** 0.06
4928 H 297.91503962563775 211.4089142664086 11.987470512168443 H 0.0 **** 0.06
4929 H 296.6065291857257 211.0180198289147 10.845409989029449 H 0.0 **** 0.06
4930 H 298.29993516708396 210.99107429768256 10.299688102303662 H 0.0 **** 0.06
4931 C 281.80955701259137 314.21976298246886 140.53374554315158 C 0.0 **** -0.24
4932 H 282.23230878046274 314.2881549517749 141.53541556122127 H 0.0 **** 0.06
4933 H 282.1490221159359 315.067505388615 139.93734751071656 H 0.0 **** 0.06
4934 H 280.72162005687403 314.23197159556895 140.59682072396663 H 0.0 **** 0.06
4935 H 282.1354934143918 313.2911916676045 140.0644491251945 H 0.0 **** 0.06
4936 C 18.46617629881952 15.239066770102298 78.09620865364207 C 0.0 **** -0.24
4937 H 18.68940705679455 14.240765208451421 78.47389817570442 H 0.0 **** 0.06
4938 H 17.755583668423554 15.165567374348242 77.27360650344406 H 0.0 **** 0.06
4939 H 19.385255345580973 15.706536612573586 77.74264677398548 H 0.0 **** 0.06
4940 H 18.03682189400712 15.84180228583999 78.89605116303994 H 0.0 **** 0.06
4941 C 173.51193090708682 148.80215245867464 106.72779381891542 C 0.0 **** -0.24
4942 H 173.74355139755988 149.8573321331976 106.58250736714206 H 0.0 **** 0.06
4943 H 173.92914463115903 148.4671239653175 107.67835574484513 H 0.0 **** 0.06
4944 H 173.94621349616307 148.2195115098822 105.91481810488426 H 0.0 **** 0.06
4945 H 172.43076037315564 148.66543390292026 106.73625911103576 H 0.0 **** 0.06
4946 C 44.520175571133564 118.5750031468958 117.64830309512726 C 0.0 **** -0.24
4947 H 43.45679348875632 118.81601395325438 117.67433566196621 H 0.0 **** 0.06
4948 H 44.85293959697526 118.29284419575171 118.64739307167847 H 0.0 **** 0.06
4949 H 45.08112482384763 119.4468489105588 117.31123892986383 H 0.0 **** 0.06
4950 H 44.68783000646286 117.74598157875457 116.96170526964735 H 0.0 **** 0.06
4951 C 187.14138420069798 18.708211597893353 154.96953157966573 C 0.0 **** -0.24
4952 H 187.12844629448432 19.00959432242952 156.01704502334547 H 0.0 **** 0.06
4953 H 187.3376217218144 17.638528594950557 154.90233444722838 H 0.0 **** 0.06
4954 H 187.92519262424344 19.254539452224904 154.44437200102004 H 0.0 **** 0.06
4955 H 186.17605030602954 18.931435764721414 154.51550868168943 H 0.0 **** 0.06
4956 C 273.8869056335316 255.78021900231798 225.69666651717054 C 0.0 **** -0.24
4957 H 273.9732044878737 255.40842475738935 224.67565089665402 H 0.0 **** 0.06
4958 H 273.9144341724193 256.8702855454721 225.68970481787971 H 0.0 **** 0.06
4959 H 274.7153928505128 255.39990935203178 226.2929289125745 H 0.0 **** 0.06
4960 H 272.9436810508174 255.4428943680573 226.12671864074375 H 0.0 **** 0.06
4961 C 7.274160725927999 185.7451903681669 197.4225095036636 C 0.0 **** -0.24
4962 H 6.607099870733336 184.8861699162096 197.49827249520047 H 0.0 **** 0.06
4963 H 8.161719288198285 185.57013358355425 198.03068815461364 H 0.0 **** 0.06
4964 H 6.759600766405015 186.6371243172636 197.77826254010017 H 0.0 **** 0.06
4965 H 7.568263558887423 185.88560252841967 196.3827752611557 H 0.0 **** 0.06
4966 C 235.0774866636092 130.3786935478575 117.6171596587298 C 0.0 **** -0.24
4967 H 236.08890679545846 130.24776972640657 117.23284908318595 H 0.0 **** 0.06
4968 H 234.35823087515269 130.07961965262297 116.85439608588203 H 0.0 **** 0.06
4969 H 234.91953956333143 131.42528767071818 117.87621525577276 H 0.0 **** 0.06
4970 H 234.94464433702734 129.76039017486985 118.5056208062183 H 0.0 **** 0.06
4971 C 310.0193272837062 224.57070299347996 87.90403510300663 C 0.0 **** -0.24
4972 H 310.87694047854666 225.04483434622938 88.37935121873286 H 0.0 **** 0.06
4973 H 309.1112672969423 225.11593133614764 88.16417058905733 H 0.0 **** 0.06
4974 H 309.93558718253354 223.53991039871354 88.25011829741428 H 0.0 **** 0.06
4975 H 310.1517561627328 224.5808712923278 86.82194335564176 H 0.0 **** 0.06
4976 C 126.07875063472025 275.39370079106004 39.09900595487608 C 0.0 **** -0.24
4977 H 125.12229567925087 274.993120884923 38.76129452128495 H 0.0 **** 0.06
4978 H 126.81441637141893 275.29811667922087 38.30107240716595 H 0.0 **** 0.06
4979 H 126.415754045618 274.8373312077079 39.97449207379694 H 0.0 **** 0.06
4980 H 125.9596450567488 276.44490441579006 39.3608592518774 H 0.0 **** 0.06
4981 C 210.94018731115503 19.402000726294858 178.9558078322503 C 0.0 **** -0.24
4982 H 210.4170669716531 20.356750766429528 179.00359714517032 H 0.0 **** 0.06
4983 H 211.96976587176624 19.535489580200192 179.28998752907586 H 0.0 **** 0.06
4984 H 210.9351721340387 19.03662982697044 177.92900001052607 H 0.0 **** 0.06
4985 H 210.43904065584923 18.680421075036094 179.6011489726966 H 0.0 **** 0.06
4986 C 177.74174424047055 179.5928262238569 100.95743872260803 C 0.0 **** -0.24
4987 H 178.78917074005227 179.3215748991235 100.82401159471956 H 0.0 **** 0.06
4988 H 177.64788026181049 180.27103288595163 101.8063118772113 H 0.0 **** 0.06
4989 H 177.15428653775325 178.69327585382223 101.14300254468006 H 0.0 **** 0.06
4990 H 177.3773293241402 180.08557030995922 100.05677819922911 H 0.0 **** 0.06
4991 C 116.91944140509884 192.15045315315615 72.4720524667141 C 0.0 **** -0.24
4992 H 116.15713205760886 191.4212497514128 72.19826750320135 H 0.0 **** 0.06
4993 H 117.11265498880539 192.09028991654418 73.54345353510305 H 0.0 **** 0.06
4994 H 116.5701674696636 193.15248712868288 72.22114016332029 H 0.0 **** 0.06
4995 H 117.83816911543954 191.93860033509895 71.92386259653975 H 0.0 **** 0.06
4996 C 21.353794980336374 6.2012407995567 21.683860704431623 C 0.0 **** -0.24
4997 H 20.652244311490932 6.670926144263149 22.372970771050802 H 0.0 **** 0.06
4998 H 21.004880212151676 5.198285025350586 21.43670781173185 H 0.0 **** 0.06
4999 H 22.3359768789407 6.138531121607812 22.151547096015832 H 0.0 **** 0.06
5000 H 21.42207851876222 6.797220907005183 20.774217138928037 H 0.0 **** 0.06
5001 C 62.918370125619504 155.27356797625464 74.74840653091016 C 0.0 **** -0.24
5002 H 63.74728129691874 155.82396823303253 74.3027035131951 H 0.0 **** 0.06
5003 H 63.19158450844398 154.96047669366067 75.756761183697 H 0.0 **** 0.06
5004 H 62.697267005636576 154.39502634281843 74.1418174103676 H 0.0 **** 0.06
5005 H 62.03834079650167 155.9151602947273 74.79328444004321 H 0.0 **** 0.06
5006 C 60.90563117943299 128.57154536985226 295.855625453909 C 0.0 **** -0.24
5007 H 59.942836534058245 128.58001779544455 296.36595675414037 H 0.0 **** 0.06
5008 H 61.655971840307046 129.0445170952892 296.4897997147124 H 0.0 **** 0.06
5009 H 60.82378972846266 129.1205951889961 294.91682535312464 H 0.0 **** 0.06
5010 H 61.19942538883703 127.54190634261869 295.65005359569074 H 0.0 **** 0.06
5011 C 92.29759289775416 44.432812623642235 11.875196459814589 C 0.0 **** -0.24
5012 H 93.19783624397587 45.04428078979251 11.800096807847922 H 0.0 **** 0.06
5013 H 92.08005569224358 44.23488077235962 12.924526671957338 H 0.0 **** 0.06
5014 H 92.45418124847802 43.49067543753364 11.35121940442967 H 0.0 **** 0.06
5015 H 91.46048770883831 44.964888132385624 11.424576997023976 H 0.0 **** 0.06
5016 C 131.98344641857085 28.56718977893499 73.87929163077138 C 0.0 **** -0.24
5017 H 132.93768318417378 28.929113981831108 73.49573795913159 H 0.0 **** 0.06
5018 H 131.64576818846817 27.72425809154751 73.2757761493159 H 0.0 **** 0.06
5019 H 131.24587056760168 29.36815505695631 73.8301811752597 H 0.0 **** 0.06
5020 H 132.10605062698755 28.248052429646123 74.91379533095687 H 0.0 **** 0.06
5021 C 220.20372121228215 291.45945603360485 170.461595763189 C 0.0 **** -0.24
5022 H 221.2542864824767 291.7473756115716 170.4022637427882 H 0.0 **** 0.06
5023 H 219.79894818803896 291.7612029299729 171.42765319397398 H 0.0 **** 0.06
5024 H 220.11629906309736 290.37884277361627 170.3510213637004 H 0.0 **** 0.06
5025 H 219.6476859176025 291.95311119438475 169.66434317776964 H 0.0 **** 0.06
5026 C 88.35503870116827 110.52979700711015 64.69534247549939 C 0.0 **** -0.24
5027 H 87.9169696753275 111.05055918981517 65.54739507484842 H 0.0 **** 0.06
5028 H 87.93982074970671 109.52388213122512 64.63314387933772 H 0.0 **** 0.06
5029 H 89.43586633631668 110.47011083407838 64.82310997397803 H 0.0 **** 0.06
5030 H 88.12607861641482 111.07568565704565 63.7807014495377 H 0.0 **** 0.06
5031 C 77.39577504721163 56.07556600956181 181.9185932949693 C 0.0 **** -0.24
5032 H 76.64599488585714 55.9455699986984 182.69837601622106 H 0.0 **** 0.06
5033 H 77.1961563780645 56.99688338244758 181.37202396526237 H 0.0 **** 0.06
5034 H 77.35543686744509 55.229508117731285 181.23133043959234 H 0.0 **** 0.06
5035 H 78.38618886555867 56.128353004822145 182.37132318580626 H 0.0 **** 0.06
5036 C 72.61619898041704 58.65614530124111 66.95270782994825 C 0.0 **** -0.24
5037 H 72.66882235301534 59.1633720388391 65.98954732122203 H 0.0 **** 0.06
5038 H 73.53667079130742 58.09588932236767 67.1200883492663 H 0.0 **** 0.06
5039 H 71.76780827965138 57.97158431690559 66.95655865908472 H 0.0 **** 0.06
5040 H 72.49084176484013 59.39496654289806 67.7448789578246 H 0.0 **** 0.06
5041 C 261.5876653302952 9.670118878382027 7.558313778838112 C 0.0 **** -0.24
5042 H 262.58740197179026 9.883597702735244 7.181543578062474 H 0.0 **** 0.06
5043 H 260.8867819057549 10.405245142116144 7.164234920855904 H 0.0 **** 0.06
5044 H 261.59166853947863 9.718112078240893 8.64670523951736 H 0.0 **** 0.06
5045 H 261.2855569029591 8.672053614738289 7.240234260911279 H 0.0 **** 0.06
5046 C 34.735243294005414 195.99982933661755 193.2020832351888 C 0.0 **** -0.24
5047 H 34.15147587876396 195.93399986588219 194.11994784030986 H 0.0 **** 0.06
5048 H 35.76442233508453 195.70008486655087 193.40374411713742 H 0.0 **** 0.06
5049 H 34.72095539108793 197.02674257314652 192.83530208009682 H 0.0 **** 0.06
5050 H 34.30573022039931 195.3388071652784 192.44989140155394 H 0.0 **** 0.06
5051 C 30.099742483360643 99.25765403411253 108.4844937986608 C 0.0 **** -0.24
5052 H 29.922972026905228 98.70461985270714 109.40729158383931 H 0.0 **** 0.06
5053 H 29.94474955540008 100.32166488682745 108.66239671074388 H 0.0 **** 0.06
5054 H 29.40666169704798 98.91178479226912 107.71658179314525 H 0.0 **** 0.06
5055 H 31.12340404266672 99.08920815704803 108.15102963937736 H 0.0 **** 0.06
5056 C 301.16567053828356 16.15416536957912 26.287507409939735 C 0.0 **** -0.24
5057 H 301.1039990998012 17.028513297164736 25.63996769466337 H 0.0 **** 0.06
5058 H 301.5746652064129 16.44672687170045 27.254859714571978 H 0.0 **** 0.06
5059 H 301.8150164590623 15.40730688057424 25.82911933297092 H 0.0 **** 0.06
5060 H 300.16991293390106 15.733070288726836 26.426363725193852 H 0.0 **** 0.06
5061 C 71.1277739128065 172.4406117582165 58.49074957641483 C 0.0 **** -0.24
5062 H 70.91382257707755 171.66943785975099 57.751699518706516 H 0.0 **** 0.06
5063 H 71.96479440330415 173.05074958169513 58.14832455702671 H 0.0 **** 0.06
5064 H 71.38408228536042 171.9726649125306 59.44210551669971 H 0.0 **** 0.06
5065 H 70.24779363312362 173.07173232531386 58.62190175938912 H 0.0 **** 0.06
5066 C 59.03671459352793 29.958140103697616 145.76291140993425 C 0.0 **** -0.24
5067 H 59.76610443664819 30.767658564498248 145.77749447528547 H 0.0 **** 0.06
5068 H 58.757641556831686 29.738750871206832 144.73143336210032 H 0.0 **** 0.06
5069 H 58.151451233987984 30.256437096273118 146.32379467286395 H 0.0 **** 0.06
5070 H 59.47313645366637 29.068493661317774 146.217395204191 H 0.0 **** 0.06
5071 C 71.24558134444439 257.22932080826666 115.60312006669403 C 0.0 **** -0.24
5072 H 70.59056563421672 256.52914414741906 116.12110405355045 H 0.0 **** 0.06
5073 H 72.14692046196188 257.3902242927262 116.19586303022467 H 0.0 **** 0.06
5074 H 70.72703040931987 258.17793005336046 115.46394831007805 H 0.0 **** 0.06
5075 H 71.51949980648368 256.81946151903475 114.63019848926103 H 0.0 **** 0.06
5076 C 264.3481370515096 272.304050532009 67.08569537978761 C 0.0 **** -0.24
5077 H 264.310625913369 271.5171818868324 66.33192286597708 H 0.0 **** 0.06
5078 H 265.2993388342495 272.8317001105512 67.0116653634714 H 0.0 **** 0.06
5079 H 264.25488424707385 271.8612131114281 68.0770577157065 H 0.0 **** 0.06
5080 H 263.5299318568881 273.0042870584658 66.92083055225223 H 0.0 **** 0.06
5081 C 19.477639861590916 66.53540783127107 23.71056970993814 C 0.0 **** -0.24
5082 H 20.28248970743077 66.9034981940435 23.073904521050935 H 0.0 **** 0.06
5083 H 19.05725602501971 65.62813759142071 23.275731239270243 H 0.0 **** 0.06
5084 H 18.70022499783876 67.29544778706116 23.78966298403276 H 0.0 **** 0.06
5085 H 19.872531651224264 66.3146774171478 24.702523797130397 H 0.0 **** 0.06
5086 C 65.50199382449145 229.16350948929988 206.2359891945503 C 0.0 **** -0.24
5087 H 64.62407442931061 228.51787341005547 206.21685968808322 H 0.0 **** 0.06
5088 H 65.28249129452695 230.05783120872917 206.81953495394737 H 0.0 **** 0.06
5089 H 65.76377550045504 229.44936235584686 205.217334767456 H 0.0 **** 0.06
5090 H 66.3369287848065 228.6291203565852 206.6895343611239 H 0.0 **** 0.06
5091 C 28.929923014388095 51.76422867563031 249.16495323035937 C 0.0 **** -0.24
5092 H 28.74852086155775 50.73076030532036 248.86776012513246 H 0.0 **** 0.06
5093 H 28.121410249254666 52.102253516568226 249.8144358498547 H 0.0 **** 0.06
5094 H 28.97014079978021 52.39597596802906 248.27697955774534 H 0.0 **** 0.06
5095 H 29.87692504783439 51.82740390606796 249.6999554584163 H 0.0 **** 0.06
5096 C 197.97049503561453 305.37015699696394 133.50132710929023 C 0.0 **** -0.24
5097 H 198.22873267134133 306.36785192816274 133.85823676709927 H 0.0 **** 0.06
5098 H 198.480473281476 305.1785385315097 132.5577197236264 H 0.0 **** 0.06
5099 H 196.89232759049372 305.3062921400304 133.35218089488825 H 0.0 **** 0.06
5100 H 198.27895040547537 304.62959842257555 134.2389114301603 H 0.0 **** 0.06
5101 C 240.6359036167796 225.42300865379434 72.08589484956457 C 0.0 **** -0.24
5102 H 240.8428908839938 224.72994114443966 71.2698035228536 H 0.0 **** 0.06
5103 H 241.49456542282968 226.0775117367344 72.23298993320793 H 0.0 **** 0.06
5104 H 240.4449327611074 224.86079426376415 72.99929479277031 H 0.0 **** 0.06
5105 H 239.75986987232324 226.02206910844865 71.8384563771586 H 0.0 **** 0.06
5106 C 180.8231325584249 292.40866999412026 188.82202538219912 C 0.0 **** -0.24
5107 H 180.09602382998116 292.7279985815556 188.07536247265887 H 0.0 **** 0.06
5108 H 181.34077223539646 291.51770281590944 188.466929618983 H 0.0 **** 0.06
5109 H 180.3091244005933 292.1830493104367 189.75655749632102 H 0.0 **** 0.06
5110 H 181.54688293132136 293.2069953100688 188.98836371439825 H 0.0 **** 0.06
5111 C 90.18852585684954 245.9011193841586 3.2804590756751395 C 0.0 **** -0.24
5112 H 90.11342652893666 246.96070106434794 3.5251059729758367 H 0.0 **** 0.06
5113 H 89.27699639759038 245.39066955184467 3.593793354654167 H 0.0 **** 0.06
5114 H 91.04377322343737 245.4686110064335 3.800043329459527 H 0.0 **** 0.06
5115 H 90.31907844058856 245.78512367517445 2.2051115212658488 H 0.0 **** 0.06
5116 C 270.2481109203885 263.11534428272313 75.94351158897035 C 0.0 **** -0.24
5117 H 270.94489966927296 263.7730515451688 75.42241087584864 H 0.0 **** 0.06
5118 H 269.8609671092569 262.3729287545569 75.24551645740902 H 0.0 **** 0.06
5119 H 269.4230571780447 263.70461303700336 76.34289111335892 H 0.0 **** 0.06
5120 H 270.76522090176445 262.6127035280211 76.75984845657032 H 0.0 **** 0.06
5121 C 96.97915869201461 281.40307373644214 112.57549022044745 C 0.0 **** -0.24
5122 H 96.44489721831289 281.4224270979714 111.62497589630897 H 0.0 **** 0.06
5123 H 97.3448347632422 280.3932560578049 112.76495162122794 H 0.0 **** 0.06
5124 H 96.30464763858811 281.7025573133165 113.37715522056698 H 0.0 **** 0.06
5125 H 97.8214060131672 282.0930091485716 112.5320169718344 H 0.0 **** 0.06
5126 C 106.6500297788221 289.7798565783676 190.28503964154396 C 0.0 **** -0.24
5127 H 106.50369134581112 290.30312677729563 191.22995641663192 H 0.0 **** 0.06
5128 H 106.08450737442078 288.84770478862595 190.29482760183595 H 0.0 **** 0.06
5129 H 107.70911994514347 289.56175693701186 190.15053346134766 H 0.0 **** 0.06
5130 H 106.3014561146847 290.40792191252365 189.46497337084668 H 0.0 **** 0.06
5131 C 215.39957060496255 7.586818450236137 145.28398165760248 C 0.0 **** -0.24
5132 H 216.48777886585555 7.6078135205237345 145.34291668902898 H 0.0 **** 0.06
5133 H 215.06509846436765 6.562971913312651 145.11654807008455 H 0.0 **** 0.06
5134 H 215.0692391584566 8.217475376996617 144.45885177434408 H 0.0 **** 0.06
5135 H 214.9782619553668 7.959032265306519 146.21887751087553 H 0.0 **** 0.06
5136 C 240.44988984289097 7.187996685416181 311.43875288904405 C 0.0 **** -0.24
5137 H 240.48821068734105 6.653700016385429 310.4896960254954 H 0.0 **** 0.06
5138 H 240.0369558032088 6.533797193093363 312.20687062405045 H 0.0 **** 0.06
5139 H 239.816717383025 8.069182582569468 311.3334371618238 H 0.0 **** 0.06
5140 H 241.45631259306828 7.4940045982108785 311.72380508379524 H 0.0 **** 0.06
5141 C 4.7569531374946905 243.4732947570608 63.65505753906777 C 0.0 **** -0.24
5142 H 4.318252576576043 242.86397670534663 64.44446407196696 H 0.0 **** 0.06
5143 H 5.831482556032256 243.2976987852189 63.615208718424356 H 0.0 **** 0.06
5144 H 4.567185061786262 244.52699505309337 63.86168550795634 H 0.0 **** 0.06
5145 H 4.309114259374482 243.20489665149 62.69757273405054 H 0.0 **** 0.06
5146 C 139.39773973299 300.77626767786944 2.417392686365588 C 0.0 **** -0.24
5147 H 138.96539406130537 300.69578250457096 3.414878880878078 H 0.0 **** 0.06
5148 H 140.02343625605835 301.667514255428 2.364347881446008 H 0.0 **** 0.06
5149 H 138.5988256849188 300.8473751179772 1.6794940318066267 H 0.0 **** 0.06
5150 H 140.00487452045988 299.893685528808 2.2118605535477087 H 0.0 **** 0.06
5151 C 127.79370784476566 42.13457874684829 208.59711726142004 C 0.0 **** -0.24
5152 H 128.7969551818375 41.86050875688892 208.27004727897253 H 0.0 **** 0.06
5153 H 127.1754939871499 42.3559187569858 207.72643730797387 H 0.0 **** 0.06
5154 H 127.84741689346615 43.014600849247444 209.23741936492368 H 0.0 **** 0.06
5155 H 127.35387714170403 41.30657307853289 209.15401125551085 H 0.0 **** 0.06
5156 C 283.85705104159547 153.48885031611303 125.33641929447819 C 0.0 **** -0.24
5157 H 283.8164569475272 153.6117988761709 126.41839762978395 H 0.0 **** 0.06
5158 H 284.8464912540054 153.7699785738405 124.97542993206281 H 0.0 **** 0.06
5159 H 283.10533011847446 154.12713738815677 124.86953962260071 H 0.0 **** 0.06
5160 H 283.6580212276046 152.44796703759368 125.08188544133918 H 0.0 **** 0.06
5161 C 108.86003063207326 289.4087985932882 80.68319986563137 C 0.0 **** -0.24
5162 H 109.8978998686436 289.29704307469 80.99673694665526 H 0.0 **** 0.06
5163 H 108.74034185996337 289.0111406762012 79.6752171621691 H 0.0 **** 0.06
5164 H 108.59066531105898 290.46570666126036 80.69132493351361 H 0.0 **** 0.06
5165 H 108.21243083354392 288.8640401755496 81.36933040122597 H 0.0 **** 0.06
5166 C 225.73681851249353 123.59380761922719 191.35279210885307 C 0.0 **** -0.24
5167 H 226.30672798311213 124.35512306939873 190.81994285101445 H 0.0 **** 0.06
5168 H 224.73484826065464 123.52581147738425 190.9277468240311 H 0.0 **** 0.06
5169 H 225.6678580778594 123.86268247021039 192.40705304655518 H 0.0 **** 0.06
5170 H 226.23917474176437 122.63121083479882 191.25618982994303 H 0.0 **** 0.06
5171 C 263.7275329397679 145.46876202856023 152.65513113166054 C 0.0 **** -0.24
5172 H 263.4963537299517 145.52249237061508 151.5909626410973 H 0.0 **** 0.06
5173 H 264.48037015634736 144.6987865624839 152.82326279428685 H 0.0 **** 0.06
5174 H 262.8242209054397 145.22145441283445 153.211679113667 H 0.0 **** 0.06
5175 H 264.110711856774 146.4319638980752 152.99226378610996 H 0.0 **** 0.06
5176 C 296.98806653394485 244.0973323249025 40.403667260620296 C 0.0 **** -0.24
5177 H 296.469656811362 243.14116492617177 40.475302553807495 H 0.0 **** 0.06
5178 H 296.45039048938435 244.84572385155005 40.986359243274165 H 0.0 **** 0.06
5179 H 297.0311901348175 244.40984686270448 39.3607054372477 H 0.0 **** 0.06
5180 H 298.0006113578526 243.99154970446415 40.79315970843817 H 0.0 **** 0.06
5181 C 167.30776072791622 237.84907401943588 192.82505802113542 C 0.0 **** -0.24
5182 H 166.58336722560995 238.60134866960442 192.5142506037568 H 0.0 **** 0.06
5183 H 167.9833356945063 237.63156493093595 191.9979705956174 H 0.0 **** 0.06
5184 H 166.7838096158152 236.93786144436544 193.1159759326576 H 0.0 **** 0.06
5185 H 167.8806448619568 238.22475674178605 193.6732193346691 H 0.0 **** 0.06
5186 C 288.8728092157675 70.19086887190016 254.32277074454538 C 0.0 **** -0.24
5187 H 289.0385668717836 69.20607974522835 254.7602100292645 H 0.0 **** 0.06
5188 H 289.44850063272975 70.2804237972878 253.4019153516512 H 0.0 **** 0.06
5189 H 289.1905478082071 70.95993782169515 255.02672066228268 H 0.0 **** 0.06
5190 H 287.8121742358451 70.31615451075768 254.10259966884087 H 0.0 **** 0.06
5191 C 96.81079872112002 40.45779804603404 14.600596461865962 C 0.0 **** -0.24
5192 H 96.69801307374405 41.24503890731893 15.346184535279889 H 0.0 **** 0.06
5193 H 97.47348380635526 40.80259694565879 13.80728281435185 H 0.0 **** 0.06
5194 H 95.83562624831069 40.21416409819324 14.179364345197683 H 0.0 **** 0.06
5195 H 97.23584661889208 39.57135220064251 15.072025566194327 H 0.0 **** 0.06
5196 C 254.35948040501637 140.1483497200708 159.0969001189364 C 0.0 **** -0.24
5197 H 255.0329706036041 139.5998086504137 158.4382651683946 H 0.0 **** 0.06
5198 H 254.69450584558967 141.1820389969426 159.18040330034796 H 0.0 **** 0.06
5199 H 254.35900568957638 139.68459863435535 160.08371016068344 H 0.0 **** 0.06
5200 H 253.34996443134384 140.12501082244654 158.68545370864734 H 0.0 **** 0.06
5201 C 102.68502339224355 85.02791768255264 190.0155571985958 C 0.0 **** -0.24
5202 H 102.93240196242868 85.5167169372807 189.07339878299092 H 0.0 **** 0.06
5203 H 103.36773371223697 85.371069128323 190.79242852057104 H 0.0 **** 0.06
5204 H 102.77835715418848 83.9482573995985 189.89949328908932 H 0.0 **** 0.06
5205 H 101.66058885701071 85.2765249685433 190.29512768398376 H 0.0 **** 0.06
5206 C 213.43154565624107 29.663309359174036 133.6853859808445 C 0.0 **** -0.24
5207 H 212.3731121187937 29.41795473743207 133.7674524316221 H 0.0 **** 0.06
5208 H 213.57482671343374 30.72356293179564 133.89735828345636 H 0.0 **** 0.06
5209 H 213.7783108793372 29.4449607246263 132.67512309138758 H 0.0 **** 0.06
5210 H 213.99963900852498 29.070173904391254 134.4011077280584 H 0.0 **** 0.06
5211 C 51.953200922604765 279.89768883544616 15.65896908659964 C 0.0 **** -0.24
5212 H 51.49477379894239 279.984238326258 14.674009134888024 H 0.0 **** 0.06
5213 H 52.059080459654325 280.8904102568556 16.097650129904977 H 0.0 **** 0.06
5214 H 52.93502542100194 279.4354830222204 15.562440410884378 H 0.0 **** 0.06
5215 H 51.322103369070874 279.28186548936395 16.299741147729776 H 0.0 **** 0.06
5216 C 154.63185338955668 144.62754918859514 71.56274731025815 C 0.0 **** -0.24
5217 H 153.91652268610352 143.84284918020458 71.31796326629646 H 0.0 **** 0.06
5218 H 154.38255572448588 145.53295181726463 71.01058963514973 H 0.0 **** 0.06
5219 H 155.63554586341485 144.30058097119118 71.29088603464521 H 0.0 **** 0.06
5220 H 154.59487220250202 144.83125945554826 72.63331999479942 H 0.0 **** 0.06
5221 C 194.3684121952084 240.50347751591548 110.04041242130972 C 0.0 **** -0.24
5222 H 195.4187818572439 240.63202397004326 110.3005003471996 H 0.0 **** 0.06
5223 H 194.25537606464565 239.6179220124062 109.4152775303634 H 0.0 **** 0.06
5224 H 194.0191407660301 241.3807998285464 109.49433423414789 H 0.0 **** 0.06
5225 H 193.78014498351848 240.38456078455405 110.95053375963562 H 0.0 **** 0.06
5226 C 190.55223008637142 302.2643207417166 125.25511027232301 C 0.0 **** -0.24
5227 H 191.0019299324302 301.27298411647456 125.20159305379937 H 0.0 **** 0.06
5228 H 189.98417511987043 302.3551361543618 126.1822680134039 H 0.0 **** 0.06
5229 H 189.8849789110434 302.40738540904255 124.40489399278883 H 0.0 **** 0.06
5230 H 191.33576928590105 303.0209197188386 125.2334156899677 H 0.0 **** 0.06
5231 C 308.70736676446495 251.70021837385215 308.2582053259331 C 0.0 **** -0.24
5232 H 307.97831565534375 252.37126465155112 308.7129060247759 H 0.0 **** 0.06
5233 H 309.26507979454414 251.18572593163668 309.04141670079616 H 0.0 **** 0.06
5234 H 309.39687206349925 252.27734417793914 307.6414561043981 H 0.0 **** 0.06
5235 H 308.19045357626277 250.96739110992382 307.63868590996367 H 0.0 **** 0.06
5236 C 167.67624532537042 260.24829368782724 167.04994688807875 C 0.0 **** -0.24
5237 H 167.47039826394524 259.70131153219427 167.97131590719346 H 0.0 **** 0.06
5238 H 167.0145458790921 259.89120335568515 166.26030919206778 H 0.0 **** 0.06
5239 H 168.7128345570518 260.08686086941935 166.75621137057584 H 0.0 **** 0.06
5240 H 167.5064319964095 261.31243464579006 167.2145093558059 H 0.0 **** 0.06
5241 C 5.405124777754708 186.92752388660335 132.97222267493913 C 0.0 **** -0.24
5242 H 5.068586195454259 186.62345803011527 131.98137047365967 H 0.0 **** 0.06
5243 H 5.461166696541582 186.0525494039963 133.62069111145274 H 0.0 **** 0.06
5244 H 4.69920541494308 187.64575838120612 133.3904467995159 H 0.0 **** 0.06
5245 H 6.389101115793878 187.38812410010314 132.89645757454429 H 0.0 **** 0.06
5246 C 228.84103690843656 165.16669924825732 91.81450138837062 C 0.0 **** -0.24
5247 H 228.90395062580717 166.18923252962264 91.44073821777752 H 0.0 **** 0.06
5248 H 228.04704421277071 165.10013757886844 92.55812796948248 H 0.0 **** 0.06
5249 H 229.7904385731278 164.88814387930205 92.26990750115792 H 0.0 **** 0.06
5250 H 228.62183899826897 164.49121727385187 90.98711228284174 H 0.0 **** 0.06
5251 C 245.57117343803355 7.631557000682577 222.59722523309955 C 0.0 **** -0.24
5252 H 244.5824900954796 8.001528617930433 222.86925023514843 H 0.0 **** 0.06
5253 H 245.5999993969574 6.549046608443376 222.71960032298475 H 0.0 **** 0.06
5254 H 246.31964879926062 8.091386773889866 223.24217837953137 H 0.0 **** 0.06
5255 H 245.78010112814434 7.886155392352009 221.5585095713091 H 0.0 **** 0.06
5256 C 78.66723033531136 117.15466060967097 113.04698378945574 C 0.0 **** -0.24
5257 H 77.74299929386461 117.70517027505247 112.87112463932488 H 0.0 **** 0.06
5258 H 78.54257533871868 116.50326401527929 113.9118502285348 H 0.0 **** 0.06
5259 H 79.47850863851068 117.85808097423691 113.23526458203338 H 0.0 **** 0.06
5260 H 78.90426628721855 116.55265133290808 112.16906457692889 H 0.0 **** 0.06
5261 C 162.52699288269713 163.29405974262897 296.82934454880035 C 0.0 **** -0.24
5262 H 162.6467092377914 163.24468524563713 295.7470707834163 H 0.0 **** 0.06
5263 H 161.97301424046623 162.42037582394914 297.1737852948276 H 0.0 **** 0.06
5264 H 161.97961158952245 164.19865925619712 297.09383044421156 H 0.0 **** 0.06
5265 H 163.50863646300832 163.31251864473256 297.3026916727458 H 0.0 **** 0.06
5266 C 44.84219289037222 116.36523708483216 56.4100189081837 C 0.0 **** -0.24
5267 H 45.811042275377815 116.37213896714752 55.9107007903128 H 0.0 **** 0.06
5268 H 44.763619784475424 117.23622940474732 57.06014504421509 H 0.0 **** 0.06
5269 H 44.74809371215986 115.45692309384958 57.005188118110226 H 0.0 **** 0.06
5270 H 44.04877048682346 116.39443030913421 55.663089195344696 H 0.0 **** 0.06
5271 C 91.19059823668172 180.14001845375833 117.14769772525824 C 0.0 **** -0.24
5272 H 91.26103958891107 179.53333316793533 118.05088393686066 H 0.0 **** 0.06
5273 H 91.09498908562679 181.19086326884246 117.42299105924823 H 0.0 **** 0.06
5274 H 90.31843277607334 179.83355600602175 116.5710353257405 H 0.0 **** 0.06
5275 H 92.09033054551969 180.00209270315594 116.5479280941259 H 0.0 **** 0.06
5276 C 254.4300329321235 59.56824508891225 176.76879335709884 C 0.0 **** -0.24
5277 H 253.87899595340127 59.188522303824584 177.628567280717 H 0.0 **** 0.06
5278 H 255.38491083893916 59.04724980670281 176.69003134267479 H 0.0 **** 0.06
5279 H 254.60876188051503 60.636154650648166 176.8945171864089 H 0.0 **** 0.06
5280 H 253.8493570210957 59.40091738684728 175.86268559975815 H 0.0 **** 0.06
5281 C 210.1884049889803 74.06638770613611 34.960986118946636 C 0.0 **** -0.24
5282 H 209.23994989235237 74.34674483898283 34.50345015861146 H 0.0 **** 0.06
5283 H 210.9941038673592 74.65122655325047 34.5152819591639 H 0.0 **** 0.06
5284 H 210.37404179685257 73.0052401602075 34.79359671328106 H 0.0 **** 0.06
5285 H 210.14641059084158 74.26312878859659 36.032384629363094 H 0.0 **** 0.06
5286 C 96.73466095055886 131.31512870598092 241.56940651687918 C 0.0 **** -0.24
5287 H 95.90042404216985 130.76228083742507 241.13793651409011 H 0.0 **** 0.06
5288 H 96.88677204559599 130.9969174817522 242.60058942006626 H 0.0 **** 0.06
5289 H 96.51187284021367 132.38204831062137 241.54697068274925 H 0.0 **** 0.06
5290 H 97.63689648024095 131.1199411586053 240.9909575441152 H 0.0 **** 0.06
5291 C 37.946614962217126 7.336506422757338 76.22922898380077 C 0.0 **** -0.24
5292 H 37.223806585073845 7.912916491063697 76.80491450913172 H 0.0 **** 0.06
5293 H 38.397700682454314 7.974596748410136 75.46900154321912 H 0.0 **** 0.06
5294 H 37.44218542295724 6.498439957874098 75.74794238329366 H 0.0 **** 0.06
5295 H 38.72319063738851 6.958726841320981 76.89495802964854 H 0.0 **** 0.06
5296 C 179.8830096172859 28.213362718518482 31.89786651689485 C 0.0 **** -0.24
5297 H 179.36983406038775 27.292759577016852 32.175699296397624 H 0.0 **** 0.06
5298 H 180.96064571950598 28.051789370415207 31.930360145993973 H 0.0 **** 0.06
5299 H 179.6130389285537 29.004094979400605 32.597684827457215 H 0.0 **** 0.06
5300 H 179.58855834428886 28.50435337517618 30.889911045592953 H 0.0 **** 0.06
5301 C 159.95508452759105 119.00552254162022 147.33998964155668 C 0.0 **** -0.24
5302 H 160.85346265779322 119.53957255530372 147.02905770059036 H 0.0 **** 0.06
5303 H 159.9796875274855 117.9909035016486 146.94128266868594 H 0.0 **** 0.06
5304 H 159.07438992599384 119.52439085596046 146.95942289559898 H 0.0 **** 0.06
5305 H 159.91243183122725 118.96889610298831 148.4284438668164 H 0.0 **** 0.06
5306 C 161.79229066672428 169.3016590148141 212.05514588133437 C 0.0 **** -0.24
5307 H 161.35137461830442 168.49066289081532 211.47612543970746 H 0.0 **** 0.06
5308 H 161.00100046231796 169.94254739541094 212.44346436404913 H 0.0 **** 0.06
5309 H 162.4521481947989 169.88755755015058 211.41349074867546 H 0.0 **** 0.06
5310 H 162.36562048892011 168.88716719347923 212.88310408415373 H 0.0 **** 0.06
5311 C 231.01876513979622 6.76291807782161 312.0378223466876 C 0.0 **** -0.24
5312 H 231.29971996752857 7.808548970522054 312.1660166277476 H 0.0 **** 0.06
5313 H 231.9089619497786 6.1372328909520775 312.108050829522 H 0.0 **** 0.06
5314 H 230.5549483864904 6.628250862464768 311.0605710426682 H 0.0 **** 0.06
5315 H 230.31167997829596 6.4791409347450895 312.8174776926967 H 0.0 **** 0.06
5316 C 187.61435862436417 194.70583964036734 227.27154434780337 C 0.0 **** -0.24
5317 H 187.5672671501942 193.88322538590631 227.98557763435196 H 0.0 **** 0.06
5318 H 188.22501323997915 195.5097069449722 227.6842205560035 H 0.0 **** 0.06
5319 H 186.60773091846664 195.07673238392914 227.0777568718447 H 0.0 **** 0.06
5320 H 188.05828839245862 194.35412576042387 226.34037301207192 H 0.0 **** 0.06
5321 C 1.2905723641258078 18.112628070849965 240.4163719731489 C 0.0 **** -0.24
5322 H 1.8015918576027445 17.515952174659034 239.659782051965 H 0.0 **** 0.06
5323 H 1.1823461152081762 17.52593671894347 241.32952403829307 H 0.0 **** 0.06
5324 H 0.30508401652959094 18.398394506207325 240.04920224517653 H 0.0 **** 0.06
5325 H 1.8738043158838593 19.007961018736324 240.62773361914358 H 0.0 **** 0.06
5326 C 65.09796584728306 257.7796188238145 166.48421294710482 C 0.0 **** -0.24
5327 H 65.23324475832894 256.7405984770464 166.78590598428218 H 0.0 **** 0.06
5328 H 66.06895880473243 258.2712441847584 166.43020805829065 H 0.0 **** 0.06
5329 H 64.47188962198538 258.2910865533613 167.2153816499582 H 0.0 **** 0.06
5330 H 64.61686666481137 257.8142610860931 165.50694745685263 H 0.0 **** 0.06
5331 C 102.67423026361982 291.05611500724683 174.84673512391265 C 0.0 **** -0.24
5332 H 102.12844034383895 290.3877203420165 174.18065007992715 H 0.0 **** 0.06
5333 H 102.09336833033183 291.9662365527396 175.003287180462 H 0.0 **** 0.06
5334 H 103.63501040426974 291.3103315945367 174.39888939281013 H 0.0 **** 0.06
5335 H 102.8383926733701 290.5616131730185 175.80411435332144 H 0.0 **** 0.06
5336 C 27.67229701595545 247.8873753818289 67.76987278438435 C 0.0 **** -0.24
5337 H 28.056531914592995 248.25327588825306 68.7226386094022 H 0.0 **** 0.06
5338 H 27.541513924427505 246.80608009421678 67.82243358955245 H 0.0 **** 0.06
5339 H 28.378473426161435 248.1301772227996 66.97615653063005 H 0.0 **** 0.06
5340 H 26.712584148680094 248.35981911225957 67.5599859462705 H 0.0 **** 0.06
5341 C 92.32159776370247 139.08334570592913 12.56841184095343 C 0.0 **** -0.24
5342 H 93.29716967227847 139.27015185409726 12.118618257219623 H 0.0 **** 0.06
5343 H 92.24689113503698 138.03237209680742 12.849295707786496 H 0.0 **** 0.06
5344 H 91.5383649562418 139.3247053836693 11.850532171006577 H 0.0 **** 0.06
5345 H 92.20609514589756 139.70609687604824 13.455879856317964 H 0.0 **** 0.06
5346 C 250.89830961812254 38.57832190891321 62.20894279608527 C 0.0 **** -0.24
5347 H 250.84437563088588 39.559468367706586 62.680923836333875 H 0.0 **** 0.06
5348 H 250.795463605427 37.80341294941971 62.96844470603594 H 0.0 **** 0.06
5349 H 251.85853662270887 38.469472515455095 61.70599523076132 H 0.0 **** 0.06
5350 H 250.09345468111067 38.482505623582284 61.479667729337365 H 0.0 **** 0.06
5351 C 300.2037060286592 226.31496337076806 301.48992429413056 C 0.0 **** -0.24
5352 H 299.3767258182589 226.05616117077386 302.15001481522177 H 0.0 **** 0.06
5353 H 299.8482838352734 226.99067655611532 300.7102723733665 H 0.0 **** 0.06
5354 H 300.6018433785348 225.40931372528632 301.0327594240166 H 0.0 **** 0.06
5355 H 300.98845813403364 226.80610236266028 302.06661570256017 H 0.0 **** 0.06
5356 C 217.50501711985322 74.49945956835353 64.21349435543306 C 0.0 **** -0.24
5357 H 217.63862942432604 75.43248057237864 64.76079857364462 H 0.0 **** 0.06
5358 H 217.13892633710378 73.72951755737989 64.89178351434165 H 0.0 **** 0.06
5359 H 218.459429851587 74.18737482492864 63.789676234588086 H 0.0 **** 0.06
5360 H 216.7825003410147 74.65051049895783 63.4105033981169 H 0.0 **** 0.06
5361 C 270.14357325753656 100.01705650032349 165.6166599000042 C 0.0 **** -0.24
5362 H 270.96578054069903 99.41883417470424 165.2218554039879 H 0.0 **** 0.06
5363 H 269.96049900447355 100.86378174050188 164.95479017159602 H 0.0 **** 0.06
5364 H 270.4040376600429 100.38053131138327 166.61008010364708 H 0.0 **** 0.06
5365 H 269.24524282230306 99.40202255739976 165.678166260497 H 0.0 **** 0.06
5366 C 52.767020239628096 183.35463865034745 73.42135903689271 C 0.0 **** -0.24
5367 H 51.96097880759805 183.4871843156767 72.69924601999855 H 0.0 **** 0.06
5368 H 53.23791847786231 182.38401060257195 73.264584059389 H 0.0 **** 0.06
5369 H 52.36074536615672 183.40325589606414 74.43126766498995 H 0.0 **** 0.06
5370 H 53.506234684344406 184.1448615804718 73.28844900187278 H 0.0 **** 0.06
5371 C 174.0529080793213 116.86216312887356 45.141830703626596 C 0.0 **** -0.24
5372 H 174.8816104750042 116.94355043770474 45.84561461784148 H 0.0 **** 0.06
5373 H 173.70835438727175 115.82830775111256 45.105814532628386 H 0.0 **** 0.06
5374 H 174.38566945990635 117.17003202052072 44.15104568411823 H 0.0 **** 0.06
5375 H 173.2361124980647 117.50702314606511 45.467065833413926 H 0.0 **** 0.06
5376 C 112.90799620972837 136.53763125281552 280.2098000471801 C 0.0 **** -0.24
5377 H 112.00045063725923 136.65471074928473 279.61651278042325 H 0.0 **** 0.06
5378 H 113.52136797153997 135.74534145678552 279.7818978315821 H 0.0 **** 0.06
5379 H 112.64034914191978 136.27864955752813 281.2345907000175 H 0.0 **** 0.06
5380 H 113.46681288127971 137.4730870251795 280.2055843388742 H 0.0 **** 0.06
5381 C 272.9368578214836 130.22224608711224 161.1121914901599 C 0.0 **** -0.24
5382 H 272.7905261624551 129.24545944483523 161.57466987546076 H 0.0 **** 0.06
5383 H 273.94029141718954 130.27782518799597 160.69101773844824 H 0.0 **** 0.06
5384 H 272.8135475903349 131.0017750776888 161.8643553632773 H 0.0 **** 0.06
5385 H 272.2008976676013 130.36249888472378 160.3202280083907 H 0.0 **** 0.06
5386 C 73.11064238047345 247.53618365476575 281.50503050144465 C 0.0 **** -0.24
5387 H 72.11241499948318 247.10293009215985 281.4545449587033 H 0.0 **** 0.06
5388 H 73.83073258270079 246.84201059371296 281.07025214650776 H 0.0 **** 0.06
5389 H 73.37249901651194 247.7269523518461 282.5450332655783 H 0.0 **** 0.06
5390 H 73.12793978805797 248.47292558205265 280.9483019233889 H 0.0 **** 0.06
5391 C 154.191241217796 116.30755917303449 159.6971132696168 C 0.0 **** -0.24
5392 H 154.48996618176471 115.25918898669894 159.68081295038775 H 0.0 **** 0.06
5393 H 153.1320086660249 116.37879930570062 159.94640546690505 H 0.0 **** 0.06
5394 H 154.36468314556487 116.749003102832 158.71551024075762 H 0.0 **** 0.06
5395 H 154.77815554613335 116.84076104124296 160.44377362120963 H 0.0 **** 0.06
5396 C 2.177410614224627 221.29017999172441 250.24188476503156 C 0.0 **** -0.24
5397 H 2.763937685755778 221.01274028310985 251.11786681588478 H 0.0 **** 0.06
5398 H 2.6610591859840866 222.12219743565464 249.73024975720108 H 0.0 **** 0.06
5399 H 1.1765873044686828 221.58892733754993 250.55564754412572 H 0.0 **** 0.06
5400 H 2.1077801676094907 220.43798819592644 249.56687951486228 H 0.0 **** 0.06
5401 C 310.816467171676 214.23854847818743 149.5052980886901 C 0.0 **** -0.24
5402 H 311.72685006875594 214.83114486448486 149.59274436588402 H 0.0 **** 0.06
5403 H 310.0027738798576 214.74469875426684 150.02562729119626 H 0.0 **** 0.06
5404 H 310.978109545438 213.25733377776447 149.94998314364886 H 0.0 **** 0.06
5405 H 310.5586888017266 214.12336334243219 148.45240633389724 H 0.0 **** 0.06
5406 C 130.679801811647 292.61872797492896 107.73637796104757 C 0.0 **** -0.24
5407 H 130.04185103773858 293.01759463782184 108.52480268375953 H 0.0 **** 0.06
5408 H 131.6769834622538 292.43313207240254 108.13630079052822 H 0.0 **** 0.06
5409 H 130.74242585825874 293.3395198141977 106.92154994235835 H 0.0 **** 0.06
5410 H 130.25799624654005 291.6848207142281 107.36458279615087 H 0.0 **** 0.06
5411 C 17.290715946307387 149.94715587919796 91.94933537736782 C 0.0 **** -0.24
5412 H 16.416952825039004 150.30567847242003 92.49392963933497 H 0.0 **** 0.06
5413 H 17.791371851359372 150.7894943896378 91.47230409231628 H 0.0 **** 0.06
5414 H 16.97560000925216 149.23277617387197 91.18784149091255 H 0.0 **** 0.06
5415 H 17.976576856411896 149.46040931773825 92.64267508241224 H 0.0 **** 0.06
5416 C 196.82932402060976 16.33944468554526 114.03047475249025 C 0.0 **** -0.24
5417 H 196.18762330414404 15.532496569896367 113.6773511523113 H 0.0 **** 0.06
5418 H 196.81879418317806 16.361209002733858 115.12043337059347 H 0.0 **** 0.06
5419 H 196.46274611245798 17.290578940741796 113.64401826456739 H 0.0 **** 0.06
5420 H 197.84773276094893 16.172626711481442 113.68039226428277 H 0.0 **** 0.06
5421 C 204.55341629568028 114.77617680856224 76.518711809709 C 0.0 **** -0.24
5422 H 203.78762241320447 114.00069177823679 76.5299833017676 H 0.0 **** 0.06
5423 H 205.02065655046295 114.81013416666508 75.53466923402976 H 0.0 **** 0.06
5424 H 205.30798614362004 114.55315004914965 77.27302855958467 H 0.0 **** 0.06
5425 H 204.09532668706095 115.74098883616247 76.73796284131984 H 0.0 **** 0.06
5426 C 187.8094993299427 222.53217517027002 55.40144799600921 C 0.0 **** -0.24
5427 H 188.64516123238468 221.8439580411926 55.273926552356215 H 0.0 **** 0.06
5428 H 188.17298211744077 223.55842027069323 55.33796876703235 H 0.0 **** 0.06
5429 H 187.34966582493058 222.36908723648412 56.37535754850717 H 0.0 **** 0.06
5430 H 187.0726555849442 222.35848829272854 54.617954850629815 H 0.0 **** 0.06
5431 C 278.5663685880479 294.7683686524088 192.60917095598893 C 0.0 **** -0.24
5432 H 279.55374592696745 295.1634432854798 192.37004468144005 H 0.0 **** 0.06
5433 H 277.999374417732 294.6290800533774 191.68831936625185 H 0.0 **** 0.06
5434 H 278.04086981920386 295.47113658600074 193.25645654171427 H 0.0 **** 0.06
5435 H 278.6717469796896 293.8127290777676 193.12120195192892 H 0.0 **** 0.06
5436 C 98.01311791747219 156.9948860353386 30.97865281485383 C 0.0 **** -0.24
5437 H 97.04134037654057 157.26601415774047 30.564921855985517 H 0.0 **** 0.06
5438 H 98.35501467578158 156.06525184196568 30.523473483154135 H 0.0 **** 0.06
5439 H 97.92246513008666 156.86006487752718 32.05608804432222 H 0.0 **** 0.06
5440 H 98.730912900172 157.787140528358 30.769536760003348 H 0.0 **** 0.06
5441 C 271.3060167988281 5.028527558962551 295.65145920144727 C 0.0 **** -0.24
5442 H 271.9696293361325 4.432389140182735 295.02504102147634 H 0.0 **** 0.06
5443 H 270.4519286772969 5.361026081882329 295.0604020396041 H 0.0 **** 0.06
5444 H 271.8458311869513 5.896176687053071 296.0305947526573 H 0.0 **** 0.06
5445 H 270.9557146827804 4.423858354244601 296.48764574031674 H 0.0 **** 0.06
5446 C 190.6701657667993 101.0565825874084 11.159092884958099 C 0.0 **** -0.24
5447 H 190.4558610471617 101.32877173977255 10.125413580610427 H 0.0 **** 0.06
5448 H 190.50984213365632 101.92244335463235 11.802250578481363 H 0.0 **** 0.06
5449 H 191.7065071753558 100.72923398567173 11.241115606380632 H 0.0 **** 0.06
5450 H 190.0077479508846 100.24767834518812 11.465295282938214 H 0.0 **** 0.06
5451 C 237.51756593934698 256.06718009814557 183.69164162838814 C 0.0 **** -0.24
5452 H 238.51045718107824 256.06633627213324 183.24065867414083 H 0.0 **** 0.06
5453 H 236.77433246996262 256.3161484480726 182.93410013029796 H 0.0 **** 0.06
5454 H 237.48363542482664 256.8063233874195 184.49217911604012 H 0.0 **** 0.06
5455 H 237.30390661538635 255.07871087650858 184.0990991648116 H 0.0 **** 0.06
5456 C 246.68033307043657 95.51486449678475 285.58339179414384 C 0.0 **** -0.24
5457 H 245.87998422095188 94.99083056331946 285.06258040981623 H 0.0 **** 0.06
5458 H 247.10814270070932 94.86079422642123 286.3442638984141 H 0.0 **** 0.06
5459 H 246.27946829371461 96.41006572628976 286.0584670912707 H 0.0 **** 0.06
5460 H 247.45494166068084 95.79796855894438 284.870128886453 H 0.0 **** 0.06
5461 C 103.6558197450413 44.35809767566005 288.1941330001802 C 0.0 **** -0.24
5462 H 103.16512548700115 44.74521471241599 289.0878672452273 H 0.0 **** 0.06
5463 H 104.43621869229062 43.654140960823355 288.4854692025262 H 0.0 **** 0.06
5464 H 104.09825837102755 45.18217113299016 287.6368168088145 H 0.0 **** 0.06
5465 H 102.92214775939826 43.847983312833776 287.56975002046664 H 0.0 **** 0.06
5466 C 65.7994244751753 38.60340159997753 29.729091092913166 C 0.0 **** -0.24
5467 H 65.40608941802131 39.17779119959414 28.891111102131077 H 0.0 **** 0.06
5468 H 64.9821784378137 38.325821905969036 30.39549771206626 H 0.0 **** 0.06
5469 H 66.52468378220823 39.20739138075186 30.274639105178466 H 0.0 **** 0.06
5470 H 66.2855651562559 37.70157213006149 29.35459783087819 H 0.0 **** 0.06
5471 C 68.7459988652206 176.70453356817978 196.20028462572253 C 0.0 **** -0.24
5472 H 67.73397159726281 177.0191593933132 196.4520041959305 H 0.0 **** 0.06
5473 H 69.03634595165212 175.87094067583416 196.84043446215242 H 0.0 **** 0.06
5474 H 69.4333633843201 177.5365078247965 196.35401232318156 H 0.0 **** 0.06
5475 H 68.78097491041208 176.39213235604592 195.15673610861813 H 0.0 **** 0.06
5476 C 174.80860424960423 269.8296518773158 42.488993861105314 C 0.0 **** -0.24
5477 H 174.70683369040376 270.2777712673446 43.47725855960428 H 0.0 **** 0.06
5478 H 175.8216798647618 269.44558665052534 42.366915802810354 H 0.0 **** 0.06
5479 H 174.61182599403043 270.58442331148797 41.72678538836928 H 0.0 **** 0.06
5480 H 174.09441181610606 269.01318656658486 42.38445242407985 H 0.0 **** 0.06
5481 C 298.0699891250972 282.07393444703325 296.3044712069785 C 0.0 **** -0.24
5482 H 297.17025173038127 281.8696445728711 296.8848164642395 H 0.0 **** 0.06
5483 H 298.1583554030408 283.14726209672284 296.13776636255517 H 0.0 **** 0.06
5484 H 298.00879008104226 281.56002906574605 295.34474505348163 H 0.0 **** 0.06
5485 H 298.94398165740046 281.7185341032456 296.8519371941506 H 0.0 **** 0.06
5486 C 8.604049126020755 68.73849651454324 227.74501701899675 C 0.0 **** -0.24
5487 H 9.473705054464304 68.0842169119384 227.68009306415422 H 0.0 **** 0.06
5488 H 7.873301034340571 68.30424984849026 228.42706277103895 H 0.0 **** 0.06
5489 H 8.159966023196986 68.84913087818495 226.7559747634326 H 0.0 **** 0.06
5490 H 8.912393048233739 69.71595699552887 228.11605796555062 H 0.0 **** 0.06
5491 C 134.10463947976206 68.21844259703724 60.93552517030852 C 0.0 **** -0.24
5492 H 133.9289199845149 69.24995502190265 61.241428959015224 H 0.0 **** 0.06
5493 H 134.4194492618522 67.6332380515114 61.80032387346955 H 0.0 **** 0.06
5494 H 134.88536985043098 68.1932687924907 60.17651482151797 H 0.0 **** 0.06
5495 H 133.1855491720915 67.79865407920548 60.52724713452537 H 0.0 **** 0.06
5496 C 72.44246096767455 207.90185190687623 68.2452320785728 C 0.0 **** -0.24
5497 H 73.2524124305503 208.05553171587067 67.5312317284075 H 0.0 **** 0.06
5498 H 71.48519955042818 208.05399535249308 67.7466187002995 H 0.0 **** 0.06
5499 H 72.54225729422924 208.6126741069333 69.06582689046783 H 0.0 **** 0.06
5500 H 72.49183439049483 206.88611173439722 68.63640149572578 H 0.0 **** 0.06
5501 C 155.36038994148748 271.53583836356603 282.81085990602617 C 0.0 **** -0.24
5502 H 156.13258916677984 270.8708797536095 283.198306361137 H 0.0 **** 0.06
5503 H 155.4029262229302 272.488340129025 283.3398697407013 H 0.0 **** 0.06
5504 H 154.38133752162088 271.08011314835034 282.9606104980002 H 0.0 **** 0.06
5505 H 155.52552620943055 271.7020262571278 281.7467391689351 H 0.0 **** 0.06
5506 C 203.47320741651015 298.80642462044574 168.3670994322369 C 0.0 **** -0.24
5507 H 202.60447959888165 298.14727693281964 168.36096268512063 H 0.0 **** 0.06
5508 H 203.15713709003654 299.82262239989024 168.59889236469672 H 0.0 **** 0.06
5509 H 203.94877043866768 298.78743325393947 167.3866232781267 H 0.0 **** 0.06
5510 H 204.18245899933004 298.46462483716584 169.12185399945645 H 0.0 **** 0.06
5511 C 291.3296606765457 58.027078229385836 312.3388569397477 C 0.0 **** -0.24
5512 H 290.32798021665394 57.62148276650353 312.48575803836746 H 0.0 **** 0.06
5513 H 291.6140944868966 58.61756505897387 313.2092982402926 H 0.0 **** 0.06
5514 H 291.337595708292 58.65967328195512 311.4509144375077 H 0.0 **** 0.06
5515 H 292.0373520551445 57.2078097485923 312.2076684338052 H 0.0 **** 0.06
5516 C 75.93818364913699 67.95650460960181 17.969648366893182 C 0.0 **** -0.24
5517 H 74.85989771451307 67.82469767392959 18.060106785713543 H 0.0 **** 0.06
5518 H 76.30808004127039 68.51763967169529 18.82836104033781 H 0.0 **** 0.06
5519 H 76.16150110493948 68.50389344515699 17.05427679017228 H 0.0 **** 0.06
5520 H 76.42128137891515 66.98079507669229 17.937870494738547 H 0.0 **** 0.06
5521 C 19.348612109485146 44.827271059751325 266.41548856071245 C 0.0 **** -0.24
5522 H 19.290104033217517 45.724432568326705 265.7980904810365 H 0.0 **** 0.06
5523 H 19.113506184881885 43.953646746249376 265.8072574249316 H 0.0 **** 0.06
5524 H 18.63376892436122 44.904012876491294 267.2347957463398 H 0.0 **** 0.06
5525 H 20.35621116611793 44.7294731037276 266.8186312741504 H 0.0 **** 0.06
5526 C 285.8303606323266 225.7048164350332 42.32349936586556 C 0.0 **** -0.24
5527 H 285.88693825350504 225.94385492180857 43.385061385129745 H 0.0 **** 0.06
5528 H 286.32434047902063 226.487591026873 41.747958577643544 H 0.0 **** 0.06
5529 H 284.78483672401876 225.6364740255528 42.0221433895959 H 0.0 **** 0.06
5530 H 286.3240807841246 224.75080109918284 42.138446668443066 H 0.0 **** 0.06
5531 C 152.32032358524253 126.77794886362335 21.98599530090769 C 0.0 **** -0.24
5532 H 152.780577001834 127.05884226370662 22.932583402574323 H 0.0 **** 0.06
5533 H 151.78058129549572 127.6312900364461 21.576319270408646 H 0.0 **** 0.06
5534 H 151.62606031862362 125.95387091255117 22.149923323413304 H 0.0 **** 0.06
5535 H 153.0946799052959 126.46573654272768 21.283968154339618 H 0.0 **** 0.06
5536 C 61.15720638954872 37.6272435026784 94.08853525475067 C 0.0 **** -0.24
5537 H 60.36893811914666 37.26996335566287 93.42555834534699 H 0.0 **** 0.06
5538 H 62.092189334696144 37.12153018165253 93.84483403463312 H 0.0 **** 0.06
5539 H 60.887050120119426 37.41491128314826 95.12224167433811 H 0.0 **** 0.06
5540 H 61.28090240249901 38.70276753832252 93.95820605891174 H 0.0 **** 0.06
5541 C 87.22399917523686 160.3788737571325 38.22477097401912 C 0.0 **** -0.24
5542 H 87.60842377757339 159.58298792570946 38.863514915977646 H 0.0 **** 0.06
5543 H 86.95927490321444 159.96646692475537 37.25093627747256 H 0.0 **** 0.06
5544 H 87.98965614053765 161.14446631226934 38.099667814405024 H 0.0 **** 0.06
5545 H 86.34130129075785 160.8198008197785 38.685850263714315 H 0.0 **** 0.06
5546 C 16.618802234786514 253.17132470604295 60.542341064102885 C 0.0 **** -0.24
5547 H 16.613687923141327 252.66873473039175 59.57468435116442 H 0.0 **** 0.06
5548 H 16.63997300100111 252.42603188044288 61.33758301073618 H 0.0 **** 0.06
5549 H 15.720945995636725 253.78141985824854 60.63895072812926 H 0.0 **** 0.06
5550 H 17.50050782563062 253.80768009051332 60.6161612803034 H 0.0 **** 0.06
5551 C 56.576000569556186 31.923347050297224 118.62416158222243 C 0.0 **** -0.24
5552 H 55.949659440018934 32.747407597582594 118.28314347146801 H 0.0 **** 0.06
5553 H 57.23273735666319 31.606953596195723 117.81352767807527 H 0.0 **** 0.06
5554 H 55.94316293999225 31.088871116598 118.927636135281 H 0.0 **** 0.06
5555 H 57.17740220179175 32.250819378566916 119.47164804030817 H 0.0 **** 0.06
5556 C 232.04383860672675 276.8485011852565 106.57827009441465 C 0.0 **** -0.24
5557 H 231.6151740218611 276.17168242138627 107.31764644401696 H 0.0 **** 0.06
5558 H 233.11838538579366 276.6739411750834 106.50696524282446 H 0.0 **** 0.06
5559 H 231.8626335150879 277.87980215404554 106.88146867221235 H 0.0 **** 0.06
5560 H 231.58099537275416 276.66833329975657 105.60860519431691 H 0.0 **** 0.06
5561 C 265.959949913162 300.5398533106171 101.82292910896572 C 0.0 **** -0.24
5562 H 266.05890535993217 299.62779802354214 102.41163389347187 H 0.0 **** 0.06
5563 H 266.33523349030696 301.38676195050334 102.398483057775 H 0.0 **** 0.06
5564 H 264.90980277738913 300.701909128304 101.5793059233525 H 0.0 **** 0.06
5565 H 266.5356217805908 300.44164765089386 100.90178042067376 H 0.0 **** 0.06
5566 C 107.58935282988242 61.86757682922919 10.692783829152091 C 0.0 **** -0.24
5567 H 106.50239571854272 61.94977695515655 10.670541298704165 H 0.0 **** 0.06
5568 H 108.00002769207873 62.65992345488971 11.318108808331417 H 0.0 **** 0.06
5569 H 107.98008866271189 61.964142165842475 9.679561248976967 H 0.0 **** 0.06
5570 H 107.87247067330841 60.89766380369295 11.10163387417245 H 0.0 **** 0.06
5571 C 217.15535110538366 269.2035355773852 37.92618792857053 C 0.0 **** -0.24
5572 H 217.36422803444606 268.22125638910103 37.50411640838246 H 0.0 **** 0.06
5573 H 217.94426252047253 269.8980374366595 37.63818568109127 H 0.0 **** 0.06
5574 H 217.11381151715307 269.130811313986 39.01332039406233 H 0.0 **** 0.06
5575 H 216.1979894518839 269.56397919142205 37.54999992385652 H 0.0 **** 0.06
5576 C 277.42020882077776 313.62325739973073 6.834380169741351 C 0.0 **** -0.24
5577 H 276.6877689723931 313.4961612822061 6.038235843637835 H 0.0 **** 0.06
5578 H 278.08312986266856 314.45269539942416 6.589744434180659 H 0.0 **** 0.06
5579 H 278.00427679852754 312.7093012854416 6.939204620496881 H 0.0 **** 0.06
5580 H 276.90432289706706 313.83375714835387 7.771739718655709 H 0.0 **** 0.06
5581 C 152.09102636093007 305.4183784629092 221.22946445768036 C 0.0 **** -0.24
5582 H 151.8499928156511 304.7485642869613 222.05447787969655 H 0.0 **** 0.06
5583 H 151.94859034920847 304.8949138492322 220.2837117766606 H 0.0 **** 0.06
5584 H 153.1291083321534 305.7407851891437 221.31442960870842 H 0.0 **** 0.06
5585 H 151.43641394670743 306.2892505262996 221.26523856565592 H 0.0 **** 0.06
5586 C 19.287779752052643 170.80915207973828 54.13326730922461 C 0.0 **** -0.24
5587 H 18.74415246777275 170.3212182987101 54.9431446810554 H 0.0 **** 0.06
5588 H 20.15844364053372 171.3238111206502 54.53907614676763 H 0.0 **** 0.06
5589 H 18.634775284111697 171.5296711851604 53.64146172720231 H 0.0 **** 0.06
5590 H 19.61232047235778 170.0598316550259 53.41101557090681 H 0.0 **** 0.06
5591 C 190.20139272283194 272.16880288072576 3.3108596438824236 C 0.0 **** -0.24
5592 H 189.28358729097795 272.3453580722228 3.8717837063719713 H 0.0 **** 0.06
5593 H 190.1140467884651 271.23398171936486 2.7576549516578694 H 0.0 **** 0.06
5594 H 191.04192103696653 272.1068349014446 4.001253348611854 H 0.0 **** 0.06
5595 H 190.36328874401937 272.9906142133951 2.613783493777177 H 0.0 **** 0.06
5596 C 220.7026750661776 260.6653898306494 233.74428215267213 C 0.0 **** -0.24
5597 H 219.7821483399711 260.5202862754285 233.17900801218929 H 0.0 **** 0.06
5598 H 220.46118706608576 261.0189975713564 234.74669347634583 H 0.0 **** 0.06
5599 H 221.3268256256158 261.4014289489921 233.23839595848162 H 0.0 **** 0.06
5600 H 221.23955497812662 259.71857132119806 233.81166928347585 H 0.0 **** 0.06
5601 C 232.08907368310594 156.70092979226024 98.63774923389175 C 0.0 **** -0.24
5602 H 231.14569493881731 157.22756295479024 98.49719176448593 H 0.0 **** 0.06
5603 H 232.86729725720625 157.18510050053936 98.047005509352 H 0.0 **** 0.06
5604 H 231.9789038257087 155.6659455286183 98.31419935198926 H 0.0 **** 0.06
5605 H 232.36511950599805 156.72405437450038 99.69199555596813 H 0.0 **** 0.06
5606 C 156.74176134911835 80.42645927016449 265.99203862725636 C 0.0 **** -0.24
5607 H 156.37009567412025 79.68233715626562 265.2878438715536 H 0.0 **** 0.06
5608 H 157.82258342289782 80.5234781091969 265.88040821734654 H 0.0 **** 0.06
5609 H 156.50858556834714 80.11294622111433 267.0098937131727 H 0.0 **** 0.06
5610 H 156.2673350805374 81.38655623218904 265.7905693089379 H 0.0 **** 0.06
5611 C 8.214270102057299 15.9084763728181 192.67046570112524 C 0.0 **** -0.24
5612 H 8.785596912199026 16.494997525753206 191.95093601910833 H 0.0 **** 0.06
5613 H 7.176474989920848 16.243120674196945 192.6680468553858 H 0.0 **** 0.06
5614 H 8.637225254315524 16.04187396588847 193.6654613619089 H 0.0 **** 0.06
5615 H 8.257541589230811 14.854704205598196 192.39471373098735 H 0.0 **** 0.06
5616 C 59.38665497554592 126.30621820372997 260.8140244543671 C 0.0 **** -0.24
5617 H 59.89950626805677 126.77278974002056 261.65605646713954 H 0.0 **** 0.06
5618 H 59.18930580480938 127.05686218443418 260.0488360669811 H 0.0 **** 0.06
5619 H 58.444530318096156 125.87690572906487 261.15459350453284 H 0.0 **** 0.06
5620 H 60.0154225879248 125.51916369391014 260.3985297670953 H 0.0 **** 0.06
5621 C 233.13994329160664 201.42651182774853 125.67456060430271 C 0.0 **** -0.24
5622 H 233.3548413872943 202.48023560106805 125.84759343510595 H 0.0 **** 0.06
5623 H 233.92953061684074 200.81829583864288 126.1159453761125 H 0.0 **** 0.06
5624 H 233.09151568298194 201.2369711567734 124.60250815768407 H 0.0 **** 0.06
5625 H 232.18486763264985 201.170614683255 126.13237004411008 H 0.0 **** 0.06
5626 C 311.4108749071279 156.0505320401602 13.715587555887495 C 0.0 **** -0.24
5627 H 311.79176227191454 155.0301284643984 13.739891925808195 H 0.0 **** 0.06
5628 H 311.58839022074744 156.4819917903605 12.730083547339774 H 0.0 **** 0.06
5629 H 311.9225244150664 156.64761580155363 14.470504844907936 H 0.0 **** 0.06
5630 H 310.34092240454385 156.04378875563992 13.921671317307002 H 0.0 **** 0.06
5631 C 44.63861864320194 112.84604792925705 23.079757552992305 C 0.0 **** -0.24
5632 H 44.72236352959416 111.9227289905823 23.652836326586453 H 0.0 **** 0.06
5633 H 44.95612440370343 112.66561436109214 22.052370005364196 H 0.0 **** 0.06
5634 H 45.273922320214325 113.60933094315976 23.528148704598323 H 0.0 **** 0.06
5635 H 43.6030986299852 113.1850581755912 23.087017122984662 H 0.0 **** 0.06
5636 C 90.66665587252564 218.077631599217 193.84956708586498 C 0.0 **** -0.24
5637 H 90.67790014234427 219.16731758995638 193.86145641035296 H 0.0 **** 0.06
5638 H 90.42977137046131 217.72762638064137 192.84384076195641 H 0.0 **** 0.06
5639 H 89.9134512539504 217.7140692819496 194.54811099361967 H 0.0 **** 0.06
5640 H 91.64677792672535 217.70144479849944 194.14369223323155 H 0.0 **** 0.06
5641 C 247.30375353586277 182.4112661381107 245.83480611009452 C 0.0 **** -0.24
5642 H 247.82528760601673 182.06358425721476 244.94314985764285 H 0.0 **** 0.06
5643 H 246.79664101374766 183.3508440857554 245.61501411536474 H 0.0 **** 0.06
5644 H 248.0231940764384 182.56557519404578 246.6387292233052 H 0.0 **** 0.06
5645 H 246.57110275269687 181.6653318459122 246.14047129447638 H 0.0 **** 0.06
5646 C 39.2256283924155 153.95307741241288 101.8820347674147 C 0.0 **** -0.24
5647 H 38.45919627490025 153.26368021939192 102.23776595036139 H 0.0 **** 0.06
5648 H 39.25545043377781 153.93200337175892 100.79294667288502 H 0.0 **** 0.06
5649 H 40.1955432790632 153.65348677290837 102.27882931194532 H 0.0 **** 0.06
5650 H 38.990523608019544 154.96219953706577 102.22080552917575 H 0.0 **** 0.06
5651 C 118.57955172884479 288.83250813158753 91.3249171783416 C 0.0 **** -0.24
5652 H 118.52014751724596 288.59704046657095 90.2621620467342 H 0.0 **** 0.06
5653 H 117.90234224475478 289.6552749762633 91.55302982948069 H 0.0 **** 0.06
5654 H 119.5994601207874 289.1205784766852 91.5767538150397 H 0.0 **** 0.06
5655 H 118.29585057074343 287.95548628823667 91.90739953248408 H 0.0 **** 0.06
5656 C 40.72284832635944 229.04109123274628 142.7118208053122 C 0.0 **** -0.24
5657 H 41.72680090425169 229.3610768529373 142.98732355602328 H 0.0 **** 0.06
5658 H 40.12208737816579 228.91311683194826 143.6117453474503 H 0.0 **** 0.06
5659 H 40.77845607636587 228.0938360632617 142.17465995819532 H 0.0 **** 0.06
5660 H 40.26454509290363 229.79492266746328 142.07161563158618 H 0.0 **** 0.06
5661 C 27.25145535217746 67.39737428665987 112.82085311472866 C 0.0 **** -0.24
5662 H 27.867964931098584 68.13131407351074 113.34162051639473 H 0.0 **** 0.06
5663 H 27.833934442821374 66.93643240016593 112.02265198740852 H 0.0 **** 0.06
5664 H 26.379425048711255 67.89303140319731 112.39464128816377 H 0.0 **** 0.06
5665 H 26.926881195261103 66.63157219291833 113.52407862040317 H 0.0 **** 0.06
5666 C 233.45787667373241 42.645544072428265 41.43013286503384 C 0.0 **** -0.24
5667 H 232.43882268259597 42.98310898338747 41.61992550322017 H 0.0 **** 0.06
5668 H 233.43319457029094 41.73724951847271 40.8284825141954 H 0.0 **** 0.06
5669 H 233.95446220457427 42.440056974214 42.37871507831014 H 0.0 **** 0.06
5670 H 234.0040588356217 43.42180745931074 40.89484364680462 H 0.0 **** 0.06
5671 C 53.308260603479624 155.42911613775976 196.38367816851155 C 0.0 **** -0.24
5672 H 52.47351144919216 155.1147129664306 197.01097064410715 H 0.0 **** 0.06
5673 H 53.79170111592643 154.54936247957852 195.9568173834321 H 0.0 **** 0.06
5674 H 54.02779032389603 155.9827217960538 196.9865140535427 H 0.0 **** 0.06
5675 H 52.938660004119214 156.06624075820724 195.5810070284369 H 0.0 **** 0.06
5676 C 189.27869586746158 311.0764474175738 100.22667493655709 C 0.0 **** -0.24
5677 H 188.5015015706624 310.6565516688786 100.86544245012124 H 0.0 **** 0.06
5678 H 189.584618655059 312.0471702600332 100.61750579961631 H 0.0 **** 0.06
5679 H 188.88998865589912 311.1978442913788 99.21556720097573 H 0.0 **** 0.06
5680 H 190.13633245735298 310.40429728649394 100.20889773658848 H 0.0 **** 0.06
5681 C 116.38927309945203 280.6109598853941 47.749895988237114 C 0.0 **** -0.24
5682 H 116.60263817426903 281.60489057842875 47.35463470854813 H 0.0 **** 0.06
5683 H 115.31568828796728 280.50732891137926 47.90849808597821 H 0.0 **** 0.06
5684 H 116.91225603689352 280.47723290029376 48.69727621509364 H 0.0 **** 0.06
5685 H 116.7272791693488 279.857447378938 47.03896691559518 H 0.0 **** 0.06
5686 C 164.85952976176804 9.503151605699145 158.01665851413821 C 0.0 **** -0.24
5687 H 164.9943539159009 10.472659275307933 158.49590863111962 H 0.0 **** 0.06
5688 H 164.60689778387865 9.648723158704726 156.9663893312424 H 0.0 **** 0.06
5689 H 164.05480231859065 8.96043694776857 158.51304636059973 H 0.0 **** 0.06
5690 H 165.78473574762654 8.929938830154086 158.09167422648346 H 0.0 **** 0.06
5691 C 224.12016355430282 200.8184748268513 20.84066949714986 C 0.0 **** -0.24
5692 H 223.9246671057657 200.54031229566084 19.804734123812125 H 0.0 **** 0.06
5693 H 223.48899845910447 200.22355185414904 21.500751786478673 H 0.0 **** 0.06
5694 H 223.89789368527545 201.8762707249919 20.980176815135223 H 0.0 **** 0.06
5695 H 225.1678951832636 200.6331840089619 21.074960110078877 H 0.0 **** 0.06
5696 C 241.95135497364558 14.658537984244333 44.535106941988374 C 0.0 **** -0.24
5697 H 241.96212437401158 14.179824889470183 43.555955706236375 H 0.0 **** 0.06
5698 H 242.96326727413737 14.96128630987937 44.80200634584281 H 0.0 **** 0.06
5699 H 241.5731723916653 13.956815809344619 45.27816230430838 H 0.0 **** 0.06
5700 H 241.30598720128705 15.536184707943505 44.502243351865644 H 0.0 **** 0.06
5701 C 102.10619426728996 148.30786591930297 109.02199058134048 C 0.0 **** -0.24
5702 H 102.8168089934789 148.1602124589488 108.2086871219125 H 0.0 **** 0.06
5703 H 101.83158085670385 147.3401653358952 109.44439845930827 H 0.0 **** 0.06
5704 H 101.21482954951381 148.8037436013489 108.63942345212789 H 0.0 **** 0.06
5705 H 102.56329842799735 148.92562482645263 109.79531138867853 H 0.0 **** 0.06
5706 C 242.72188248283612 152.72289305244584 203.02502956243666 C 0.0 **** -0.24
5707 H 242.53565535594672 153.35146325072873 203.89530843082713 H 0.0 **** 0.06
5708 H 243.54468617953052 152.03955449251805 203.2401477828608 H 0.0 **** 0.06
5709 H 242.98369673821156 153.34960138346304 202.1727096037872 H 0.0 **** 0.06
5710 H 241.82477196236667 152.14886768835856 202.79206186603267 H 0.0 **** 0.06
5711 C 178.59925845022798 112.89566653986765 227.21984747238048 C 0.0 **** -0.24
5712 H 178.12775450066385 113.47004471636583 228.01733733837392 H 0.0 **** 0.06
5713 H 179.30954214799874 112.19060336835767 227.65234411440204 H 0.0 **** 0.06
5714 H 179.1247356897647 113.57386003837323 226.54611636300672 H 0.0 **** 0.06
5715 H 177.8371411508823 112.34971356462358 226.66500703167208 H 0.0 **** 0.06
5716 C 24.273004276923132 239.17892535259293 36.842845119184574 C 0.0 **** -0.24
5717 H 24.521733752283552 239.0925667860235 37.900132777232585 H 0.0 **** 0.06
5718 H 23.61186387717538 238.35992098828947 36.55792481927429 H 0.0 **** 0.06
5719 H 25.186716868134965 239.13137293933224 36.250153445542736 H 0.0 **** 0.06
5720 H 23.771923068739994 240.1301059047684 36.66456296164009 H 0.0 **** 0.06
5721 C 62.926443572592575 248.43517251951587 207.27814606016847 C 0.0 **** -0.24
5722 H 62.75540944343692 249.41068209397014 206.8226191696486 H 0.0 **** 0.06
5723 H 63.81033570351255 247.9766204657597 206.83402550459982 H 0.0 **** 0.06
5724 H 62.06024969115978 247.79695928709356 207.1048706217647 H 0.0 **** 0.06
5725 H 63.079569378927005 248.55694629474033 208.35023979816768 H 0.0 **** 0.06
5726 C 179.6373531596219 293.944265540703 182.38058339414494 C 0.0 **** -0.24
5727 H 180.60526514139332 293.465328287687 182.22959711218215 H 0.0 **** 0.06
5728 H 179.5469302953859 294.25962098784504 183.4203727961907 H 0.0 **** 0.06
5729 H 178.84240554635096 293.23611294066234 182.14489389275712 H 0.0 **** 0.06
5730 H 179.5568771546665 294.812449805995 181.72783073349973 H 0.0 **** 0.06
5731 C 63.3132181065092 134.3656771856563 287.21548233271767 C 0.0 **** -0.24
5732 H 64.36157161703608 134.59271711899646 287.4073784829833 H 0.0 **** 0.06
5733 H 63.22265167279758 133.8523951099988 286.2581853141667 H 0.0 **** 0.06
5734 H 62.73992142954782 135.2925061698515 287.18687628493973 H 0.0 **** 0.06
5735 H 62.92902311776493 133.72597163861974 288.0091203908382 H 0.0 **** 0.06
5736 C 154.71491875143136 163.53786675843418 204.0811259746677 C 0.0 **** -0.24
5737 H 155.00414907817566 163.21900925567525 205.08197064596658 H 0.0 **** 0.06
5738 H 153.66386193096935 163.82864964687542 204.0816026011023 H 0.0 **** 0.06
5739 H 154.86444349235268 162.71587826696435 203.38120910760279 H 0.0 **** 0.06
5740 H 155.32722050422785 164.38792986422146 203.7797215439992 H 0.0 **** 0.06
5741 C 222.77848061897848 39.496126419512166 81.72304052351078 C 0.0 **** -0.24
5742 H 222.42634166482767 38.7413535542172 81.01942455461636 H 0.0 **** 0.06
5743 H 223.8191593926905 39.29649444777158 81.97914619961816 H 0.0 **** 0.06
5744 H 222.1686152103307 39.46314899107449 82.6253276275857 H 0.0 **** 0.06
5745 H 222.69854495376478 40.48240498851919 81.26558208273127 H 0.0 **** 0.06
5746 C 22.747290743696624 57.83392495807186 28.76032414967358 C 0.0 **** -0.24
5747 H 23.28670733073102 57.47058873754304 27.885110524101265 H 0.0 **** 0.06
5748 H 22.216005960118224 57.00449658946144 29.22910492832682 H 0.0 **** 0.06
5749 H 22.031219389185395 58.59702929573314 28.45402700857801 H 0.0 **** 0.06
5750 H 23.453843962894837 58.2621759519584 29.470391033004603 H 0.0 **** 0.06
5751 C 254.3437079311682 44.59178141870632 265.131335810393 C 0.0 **** -0.24
5752 H 253.424235866689 45.01802857107538 264.7291979721351 H 0.0 **** 0.06
5753 H 255.07238109715 44.47842340009808 264.3278367545792 H 0.0 **** 0.06
5754 H 254.1314322765082 43.616814742703156 265.56990322417624 H 0.0 **** 0.06
5755 H 254.74655697979713 45.255088505812836 265.89655127081915 H 0.0 **** 0.06
5756 C 146.19695045541604 59.75754346712017 122.2890315258773 C 0.0 **** -0.24
5757 H 145.7044636057409 59.78604231103404 123.26091622474422 H 0.0 **** 0.06
5758 H 147.0552629210421 60.4299817461079 122.29726718140327 H 0.0 **** 0.06
5759 H 145.49596405153036 60.07291740021191 121.51703237556401 H 0.0 **** 0.06
5760 H 146.53352910780103 58.74187588886073 122.08216555676327 H 0.0 **** 0.06
5761 C 256.3971722942203 12.35450986074828 94.39002928690647 C 0.0 **** -0.24
5762 H 257.1557010974578 12.303627529594493 95.17143148486008 H 0.0 **** 0.06
5763 H 255.84989452902323 13.29353813385886 94.47620528537587 H 0.0 **** 0.06
5764 H 255.70647414485552 11.51907215806716 94.50085012311101 H 0.0 **** 0.06
5765 H 256.8782593699462 12.30140655462155 93.41309806266545 H 0.0 **** 0.06
5766 C 175.43250244596487 127.11479227067935 240.9857405878281 C 0.0 **** -0.24
5767 H 174.5197630529941 127.57701900975599 241.36100394833994 H 0.0 **** 0.06
5768 H 175.68309873287836 126.25230407946094 241.60355849967596 H 0.0 **** 0.06
5769 H 176.24793856865386 127.8378948921924 241.02319567469232 H 0.0 **** 0.06
5770 H 175.27992857525635 126.79233880598207 239.95635857830544 H 0.0 **** 0.06
5771 C 241.8769491163957 206.85204208703414 67.42550882713587 C 0.0 **** -0.24
5772 H 241.73577321294962 207.63511065392862 68.17089620064868 H 0.0 **** 0.06
5773 H 242.84040528712413 206.36771107974693 67.58550268279117 H 0.0 **** 0.06
5774 H 241.8522198529912 207.29120386368828 66.42878582543202 H 0.0 **** 0.06
5775 H 241.07949913523348 206.1140600690763 67.51784204440068 H 0.0 **** 0.06
5776 C 87.91236571958913 80.04864663439892 172.28950930763142 C 0.0 **** -0.24
5777 H 87.06174359024527 79.4039344930423 172.51170651725562 H 0.0 **** 0.06
5778 H 88.58473299710917 79.53787717138363 171.60000212784462 H 0.0 **** 0.06
5779 H 88.44410607850642 80.27917272529513 173.21311813491843 H 0.0 **** 0.06
5780 H 87.55810301180617 80.97320197251364 171.83369606689064 H 0.0 **** 0.06
5781 C 171.9063722695807 272.0095933975752 177.40551368008255 C 0.0 **** -0.24
5782 H 170.93728103126142 272.4090601819365 177.10736806516525 H 0.0 **** 0.06
5783 H 172.00075872049888 270.98355635683095 177.04965058880725 H 0.0 **** 0.06
5784 H 171.9859844483115 272.02593607907454 178.49227683997782 H 0.0 **** 0.06
5785 H 172.699102906073 272.61925668558393 176.97307968662807 H 0.0 **** 0.06
5786 C 99.94859398284919 34.20694650888723 182.49356667337685 C 0.0 **** -0.24
5787 H 100.30784805893276 33.32796160552169 183.0278403804025 H 0.0 **** 0.06
5788 H 100.6707617421497 34.48662550945585 181.72644886330977 H 0.0 **** 0.06
5789 H 99.82492355155765 35.03238229524035 183.19462853732387 H 0.0 **** 0.06
5790 H 98.9899886547692 33.981285358890915 182.02557498143494 H 0.0 **** 0.06
5791 C 4.815871948792221 21.315665767109067 63.668641399298565 C 0.0 **** -0.24
5792 H 3.726286740091595 21.303405819736383 63.64863852427689 H 0.0 **** 0.06
5793 H 5.19722100599914 21.340599881690082 62.648377937533354 H 0.0 **** 0.06
5794 H 5.179609230986799 20.41853763708525 64.17125722206526 H 0.0 **** 0.06
5795 H 5.158743887017479 22.198364718629705 64.20810107642967 H 0.0 **** 0.06
5796 C 275.98425327647294 192.52429175661075 134.5501443726249 C 0.0 **** -0.24
5797 H 276.95188977312205 192.16259002249734 134.8983667400947 H 0.0 **** 0.06
5798 H 275.98239421977956 192.56722984602072 133.46066779302495 H 0.0 **** 0.06
5799 H 275.8031980861791 193.5198582267796 134.95459556725314 H 0.0 **** 0.06
5800 H 275.2005642232617 191.8460825466051 134.88866628937865 H 0.0 **** 0.06
5801 C 4.263428675718387 40.50973767831002 132.7412836031948 C 0.0 **** -0.24
5802 H 4.912548649003952 40.789522787302104 133.57058445315195 H 0.0 **** 0.06
5803 H 3.5005999711531217 41.276788516255664 132.60296608691164 H 0.0 **** 0.06
5804 H 3.78486891319136 39.555589883880344 132.9597667506869 H 0.0 **** 0.06
5805 H 4.857207916052346 40.419511284245374 131.8310063009493 H 0.0 **** 0.06
5806 C 233.06244807262559 11.83636643843306 29.33994959836778 C 0.0 **** -0.24
5807 H 232.68764339960143 12.380001565793918 30.208066907415287 H 0.0 **** 0.06
5808 H 232.76434421690166 12.357273558857173 28.430010472122575 H 0.0 **** 0.06
5809 H 232.64524159944324 10.828985998302528 29.336107584428305 H 0.0 **** 0.06
5810 H 234.14935141555412 11.779624001328898 29.388855260678838 H 0.0 **** 0.06
5811 C 95.2973471299079 213.9575714980067 302.5569795091202 C 0.0 **** -0.24
5812 H 94.59095417977576 213.61476940758615 301.80063099233587 H 0.0 **** 0.06
5813 H 95.63964846732094 213.107326688676 303.146869251653 H 0.0 **** 0.06
5814 H 94.80673227333014 214.67959689818167 303.2099348944056 H 0.0 **** 0.06
5815 H 96.15001364525816 214.42929156784987 302.06865242724484 H 0.0 **** 0.06
5816 C 34.23657226061226 174.06412453506022 4.9517207449677585 C 0.0 **** -0.24
5817 H 34.968814945060245 174.19409121810276 4.15430889023537 H 0.0 **** 0.06
5818 H 34.69672701607118 173.52703575857475 5.781951799188789 H 0.0 **** 0.06
5819 H 33.38777382743427 173.49332109901337 4.57547214897852 H 0.0 **** 0.06
5820 H 33.89506336188197 175.04088160420014 5.294634219009765 H 0.0 **** 0.06
5821 C 34.776453287382736 8.280322406066517 112.29324710759963 C 0.0 **** -0.24
5822 H 35.79796376362097 8.509178967968182 112.5967736639885 H 0.0 **** 0.06
5823 H 34.35487312294953 9.134566114033348 111.76310731081611 H 0.0 **** 0.06
5824 H 34.1749964385086 8.067953377761967 113.1768954555427 H 0.0 **** 0.06
5825 H 34.779508959832754 7.409470653023902 111.63749544852405 H 0.0 **** 0.06
5826 C 292.77368569989636 278.7544788936536 75.13534529562736 C 0.0 **** -0.24
5827 H 293.8560527788557 278.807882729564 75.24894495633075 H 0.0 **** 0.06
5828 H 292.3905827353525 277.90363374866115 75.70119776784378 H 0.0 **** 0.06
5829 H 292.5248219552248 278.6316205957531 74.08113657510225 H 0.0 **** 0.06
5830 H 292.3231768906416 279.67306179268377 75.51030478268459 H 0.0 **** 0.06
5831 C 5.1352194519079575 229.19678154563587 149.83179660664103 C 0.0 **** -0.24
5832 H 4.62805141074773 228.47042359365508 150.46711389359018 H 0.0 **** 0.06
5833 H 4.393629105038798 229.7756771123505 149.27939182771678 H 0.0 **** 0.06
5834 H 5.784685569067449 228.67454519068806 149.12945957865747 H 0.0 **** 0.06
5835 H 5.731870441227272 229.86601760983214 150.44987591167256 H 0.0 **** 0.06
5836 C 313.94769621328754 108.86998262431428 120.87999528936496 C 0.0 **** -0.24
5837 H 313.33539518230026 109.30127713985254 121.67183355410566 H 0.0 **** 0.06
5838 H 313.47261895380706 109.04981594344096 119.91427383040377 H 0.0 **** 0.06
5839 H 314.0473789584571 107.79645650351182 121.0412415901929 H 0.0 **** 0.06
5840 H 314.9344713124996 109.33248171979824 120.89116841023838 H 0.0 **** 0.06
5841 C 73.92913326169284 222.02591066478675 108.87507231845288 C 0.0 **** -0.24
5842 H 73.2847905109962 221.64283903320364 108.08429745113142 H 0.0 **** 0.06
5843 H 73.80254861113005 221.4201743229625 109.77292596175144 H 0.0 **** 0.06
5844 H 73.6601431448941 223.05943046290156 109.09434269069587 H 0.0 **** 0.06
5845 H 74.96920119486265 221.98296202224026 108.55114569050883 H 0.0 **** 0.06
5846 C 284.78185524477533 147.20050894680617 115.05116191441317 C 0.0 **** -0.24
5847 H 284.37731763270244 146.84563370890638 114.10215862395245 H 0.0 **** 0.06
5848 H 284.6693931973643 148.28280391373443 115.11123886690018 H 0.0 **** 0.06
5849 H 285.8382641537568 146.94010279852793 115.11493654805341 H 0.0 **** 0.06
5850 H 284.24204341527513 146.73133171589728 115.87345764152855 H 0.0 **** 0.06
5851 C 164.20423067241586 190.59049385121943 245.84568050809517 C 0.0 **** -0.24
5852 H 163.21159031632328 190.72901915518202 245.41742215992153 H 0.0 **** 0.06
5853 H 164.33481649733528 189.54550880614516 246.13026609547865 H 0.0 **** 0.06
5854 H 164.3110282589285 191.22274256675615 246.72686504327086 H 0.0 **** 0.06
5855 H 164.95899262412865 190.86338150493071 245.1081080880321 H 0.0 **** 0.06
5856 C 197.40455180267855 287.0099356292546 137.77325319525346 C 0.0 **** -0.24
5857 H 197.0541929223906 288.0426997751663 137.76766484698953 H 0.0 **** 0.06
5858 H 196.92306231016482 286.46781256202416 138.5868451055688 H 0.0 **** 0.06
5859 H 198.48497727436404 286.99345402715664 137.91327998838906 H 0.0 **** 0.06
5860 H 197.15370718828882 286.5372219277141 136.82282113931618 H 0.0 **** 0.06
5861 C 57.39653939956301 142.60907051688224 258.3369468982275 C 0.0 **** -0.24
5862 H 56.64144087055692 143.3895482890641 258.42815548594984 H 0.0 **** 0.06
5863 H 58.29884279052325 143.02710251333335 257.8908211426707 H 0.0 **** 0.06
5864 H 57.01584278076348 141.80736762109652 257.7033777184139 H 0.0 **** 0.06
5865 H 57.62917930034516 142.2117620618232 259.32528237826733 H 0.0 **** 0.06
5866 C 234.7655734340821 305.1810492761947 233.2794486813743 C 0.0 **** -0.24
5867 H 235.10016514342186 305.98785149409434 232.62759446623716 H 0.0 **** 0.06
5868 H 233.69132544853085 305.26765203786715 233.44335590627801 H 0.0 **** 0.06
5869 H 235.28653008658713 305.245855747118 234.23479659616888 H 0.0 **** 0.06
5870 H 234.98501793189192 304.22129959462313 232.81029303896005 H 0.0 **** 0.06
5871 C 157.13011366079468 207.05210321712747 106.6824154339489 C 0.0 **** -0.24
5872 H 157.78574989034212 207.92140048354554 106.63534372835207 H 0.0 **** 0.06
5873 H 157.5871343289694 206.2861474264456 107.30883876117466 H 0.0 **** 0.06
5874 H 156.97776412694145 206.65725414902033 105.67753773668349 H 0.0 **** 0.06
5875 H 156.1694352155144 207.3453427605089 107.10701271343163 H 0.0 **** 0.06
5876 C 107.86583053722393 123.70833439426329 29.394721425465804 C 0.0 **** -0.24
5877 H 107.38643430455775 124.44635801545189 28.75138423714631 H 0.0 **** 0.06
5878 H 108.84423648085061 124.07690026414147 29.70373819081246 H 0.0 **** 0.06
5879 H 107.98495194243412 122.77236003617577 28.84885565237039 H 0.0 **** 0.06
5880 H 107.24696580434357 123.53851703856014 30.275816118615467 H 0.0 **** 0.06
5881 C 7.515617585761916 291.90950321954847 70.57598294911122 C 0.0 **** -0.24
5882 H 7.749099235858452 290.8902463259008 70.88393108490249 H 0.0 **** 0.06
5883 H 6.493201665526385 291.9493998859412 70.1975053390506 H 0.0 **** 0.06
5884 H 8.205983748848539 292.21880894360135 69.79120917274778 H 0.0 **** 0.06
5885 H 7.613656843641749 292.5791966671333 71.43051810997258 H 0.0 **** 0.06
5886 C 228.190400805854 195.07434481315562 139.8730384284644 C 0.0 **** -0.24
5887 H 228.69696824248567 196.03916667787973 139.90580355505617 H 0.0 **** 0.06
5888 H 227.69607131757238 194.95625882822043 138.90839631325215 H 0.0 **** 0.06
5889 H 227.44863271541723 195.0263407816796 140.6701394647052 H 0.0 **** 0.06
5890 H 228.920339338301 194.27651785582157 140.0076944052912 H 0.0 **** 0.06
5891 C 15.570580016169444 70.47698844954138 105.5366700617657 C 0.0 **** -0.24
5892 H 14.818502302872531 70.20036999071039 104.79775146577305 H 0.0 **** 0.06
5893 H 15.603571334736387 69.72118687866424 106.32181394114735 H 0.0 **** 0.06
5894 H 15.314519954404403 71.44256646966588 105.9714799934043 H 0.0 **** 0.06
5895 H 16.54612137492471 70.54253822048017 105.05416033342803 H 0.0 **** 0.06
5896 C 127.51499742088026 191.94990440135905 289.60118663087565 C 0.0 **** -0.24
5897 H 128.11217722834337 191.7943470878788 290.5000334212834 H 0.0 **** 0.06
5898 H 126.59889779612931 192.48064253065905 289.8612594430589 H 0.0 **** 0.06
5899 H 127.26369497978433 190.98420198912913 289.1618413372768 H 0.0 **** 0.06
5900 H 128.08505205641163 192.53833424700355 288.88287585199095 H 0.0 **** 0.06
5901 C 117.56409252449339 27.61831640422764 66.49682264987902 C 0.0 **** -0.24
5902 H 118.35779081520991 28.056400742475546 67.10233110373923 H 0.0 **** 0.06
5903 H 116.97501737460342 26.934754232057543 67.10903877093637 H 0.0 **** 0.06
5904 H 118.00387058002832 27.072518225247194 65.66207420894247 H 0.0 **** 0.06
5905 H 116.92076303933092 28.410437235752738 66.11347540189013 H 0.0 **** 0.06
5906 C 88.55244290739373 184.38959134802923 59.23361087389458 C 0.0 **** -0.24
5907 H 87.71976001966732 183.70646704695554 59.40197877138186 H 0.0 **** 0.06
5908 H 89.21100598101214 183.97818048393623 58.468676805591684 H 0.0 **** 0.06
5909 H 89.10912743319042 184.52039820863695 60.161645493179236 H 0.0 **** 0.06
5910 H 88.16807861606773 185.35482694165802 58.901442697044644 H 0.0 **** 0.06
5911 C 103.50235541541309 120.85916198285184 166.07297825730058 C 0.0 **** -0.24
5912 H 102.72476479398182 120.51847691742802 166.75568526308456 H 0.0 **** 0.06
5913 H 103.04169882508154 121.30978314832464 165.1932990967867 H 0.0 **** 0.06
5914 H 104.11552768844689 120.01180194586533 165.76912949026172 H 0.0 **** 0.06
5915 H 104.12716153796049 121.59845633908222 166.5749947090959 H 0.0 **** 0.06
5916 C 42.3580764043779 222.79557982595594 42.656790753934644 C 0.0 **** -0.24
5917 H 42.566217161948884 223.2505606414289 43.62600344459628 H 0.0 **** 0.06
5918 H 43.28962647808498 222.4490026213041 42.21078509750279 H 0.0 **** 0.06
5919 H 41.89361701502992 223.53339548642418 42.00260738780466 H 0.0 **** 0.06
5920 H 41.68114331495411 221.95107767044883 42.790622952120174 H 0.0 **** 0.06
5921 C 102.21341825854265 272.23696046714747 147.3275486550307 C 0.0 **** -0.24
5922 H 101.99716861883198 272.8946508576831 146.48583445643553 H 0.0 **** 0.06
5923 H 101.52222156807147 271.39324681915616 147.31669635043278 H 0.0 **** 0.06
5924 H 102.09736224983163 272.78906815176504 148.26048619843863 H 0.0 **** 0.06
5925 H 103.23666703923155 271.8694524585435 147.24813110190195 H 0.0 **** 0.06
5926 C 213.47730212920283 115.57291209283193 192.74459847486054 C 0.0 **** -0.24
5927 H 213.54647890463946 115.71090551932514 191.66553279640914 H 0.0 **** 0.06
5928 H 212.89946396237886 114.67353407111224 192.95937645458525 H 0.0 **** 0.06
5929 H 212.9850642181399 116.43724432723911 193.18929384587858 H 0.0 **** 0.06
5930 H 214.47902646836215 115.47108053051144 193.16217245822583 H 0.0 **** 0.06
5931 C 313.5033182030436 242.9919492939022 79.40748456166219 C 0.0 **** -0.24
5932 H 314.2597097182263 242.922575077361 80.18859751070903 H 0.0 **** 0.06
5933 H 313.72462561203537 242.26952615076112 78.62118678882015 H 0.0 **** 0.06
5934 H 313.50660121259443 243.99804605725572 78.98752756764543 H 0.0 **** 0.06
5935 H 312.52278556012766 242.77799410055033 79.83180196360368 H 0.0 **** 0.06
5936 C 36.35483192370043 104.94808916195461 296.2167460287362 C 0.0 **** -0.24
5937 H 35.70705491543356 104.3238080327788 295.60167825424196 H 0.0 **** 0.06
5938 H 37.31309132299623 104.44704931566721 296.3589337652506 H 0.0 **** 0.06
5939 H 35.88446026284481 105.11391990619538 297.18609891400774 H 0.0 **** 0.06
5940 H 36.51500920595538 105.90556541946717 295.7212010721988 H 0.0 **** 0.06
5941 C 189.4299004806681 89.55443864743754 143.6352045331016 C 0.0 **** -0.24
5942 H 189.71872441002387 90.54189353053778 143.2777007800066 H 0.0 **** 0.06
5943 H 189.40747441849823 88.85713135735716 142.7981227199415 H 0.0 **** 0.06
5944 H 188.44149822095602 89.60834925307816 144.0909335830631 H 0.0 **** 0.06
5945 H 190.15313404568792 89.20999782922704 144.3755916555732 H 0.0 **** 0.06
5946 C 301.12903853400286 50.44670757731913 30.21878284074458 C 0.0 **** -0.24
5947 H 301.3322287682546 49.782056939572925 29.379715141573712 H 0.0 **** 0.06
5948 H 301.4880994778336 51.448777877158165 29.983594184550753 H 0.0 **** 0.06
5949 H 301.6411916179844 50.07569480645117 31.107984226115548 H 0.0 **** 0.06
5950 H 300.05529217895526 50.479344864121344 30.405123725285534 H 0.0 **** 0.06
5951 C 243.50234530237873 162.78393446063018 264.06873501437826 C 0.0 **** -0.24
5952 H 244.5443929619463 162.5145213152635 264.2430238134477 H 0.0 **** 0.06
5953 H 243.1923609168001 163.52900099336006 264.80117128500564 H 0.0 **** 0.06
5954 H 242.87661103022515 161.89718386663657 264.1642826447977 H 0.0 **** 0.06
5955 H 243.39810809567587 163.1960011597858 263.06454280445644 H 0.0 **** 0.06
5956 C 178.98133722257086 108.79613280854699 236.48953453888933 C 0.0 **** -0.24
5957 H 178.80894580978156 107.7815893654763 236.84914843451514 H 0.0 **** 0.06
5958 H 178.88166831356602 109.4971996379112 237.3181229522565 H 0.0 **** 0.06
5959 H 178.24949797281766 109.03803127924971 235.7186241720487 H 0.0 **** 0.06
5960 H 179.98539497220548 108.86676327749808 236.07120485756528 H 0.0 **** 0.06
5961 C 303.1923433120468 169.29195801777524 22.098624222928493 C 0.0 **** -0.24
5962 H 302.93601445062075 169.36965051273268 23.155563551549562 H 0.0 **** 0.06
5963 H 302.5725197017915 169.97954122035105 21.52326052824077 H 0.0 **** 0.06
5964 H 303.01857923960995 168.27259359957588 21.755974877833523 H 0.0 **** 0.06
5965 H 304.24271652108666 169.547991458323 21.96070269488041 H 0.0 **** 0.06
5966 C 97.4243379209957 124.52021114336759 183.14107461419502 C 0.0 **** -0.24
5967 H 96.76404407228966 125.12979952581685 183.75819080155975 H 0.0 **** 0.06
5968 H 96.82982995429768 123.81039867833326 182.56553582850944 H 0.0 **** 0.06
5969 H 98.12148682339941 123.97824333785954 183.7800493048556 H 0.0 **** 0.06
5970 H 97.98109021701035 125.16448479399222 182.45959776198134 H 0.0 **** 0.06
5971 C 161.8989096476713 45.25551582797007 177.37291455829381 C 0.0 **** -0.24
5972 H 162.82845346133286 45.69043098162791 177.7376287601893 H 0.0 **** 0.06
5973 H 162.11792615169128 44.55039907326244 176.57012910128634 H 0.0 **** 0.06
5974 H 161.25128266422024 46.04642117914673 176.9959074480796 H 0.0 **** 0.06
5975 H 161.3972627274236 44.73360696817511 178.1877966720225 H 0.0 **** 0.06
5976 C 123.91628887689185 49.334800727792555 164.08249631405027 C 0.0 **** -0.24
5977 H 123.00130872029192 48.78480920316372 164.30143919156137 H 0.0 **** 0.06
5978 H 124.77905411400238 48.70056848686295 164.2889060162687 H 0.0 **** 0.06
5979 H 123.96270772770555 50.22685406127255 164.70601654957102 H 0.0 **** 0.06
5980 H 123.92205238160716 49.6253071878414 163.03213012704873 H 0.0 **** 0.06
5981 C 74.91570474257611 149.50657135822416 260.07671134044676 C 0.0 **** -0.24
5982 H 74.36550430887948 150.15266226909472 259.3931885798625 H 0.0 **** 0.06
5983 H 75.79781214263568 149.11103157929273 259.5717468124626 H 0.0 **** 0.06
5984 H 74.27674230199756 148.68258117290932 260.39188830196645 H 0.0 **** 0.06
5985 H 75.22459165940597 150.08100965822837 260.9508262460439 H 0.0 **** 0.06
5986 C 107.82252520142487 141.35889219380968 129.99929623154117 C 0.0 **** -0.24
5987 H 107.51772448116787 140.40778852182294 130.43442571838128 H 0.0 **** 0.06
5988 H 108.2050574970198 142.01095681237732 130.78592965056623 H 0.0 **** 0.06
5989 H 106.96504500380709 141.83175305412277 129.51977076754127 H 0.0 **** 0.06
5990 H 108.60377904671697 141.18651039668333 129.25921765884277 H 0.0 **** 0.06
5991 C 4.551843714625875 265.3535805290725 309.6841806637079 C 0.0 **** -0.24
5992 H 4.831717481281885 264.43310784768744 309.1706749939843 H 0.0 **** 0.06
5993 H 4.263113122430241 265.12304850922993 310.70948207369753 H 0.0 **** 0.06
5994 H 3.7129172049274644 265.81744869725895 309.16581498015825 H 0.0 **** 0.06
5995 H 5.399883040945781 266.0380343493005 309.6898917958641 H 0.0 **** 0.06
5996 C 173.06450708952207 44.23083367071479 262.66968404806903 C 0.0 **** -0.24
5997 H 174.12425972305846 44.052420548162445 262.48344637717577 H 0.0 **** 0.06
5998 H 172.56807840484635 44.47600656848408 261.730878871108 H 0.0 **** 0.06
5999 H 172.95291082286298 45.06049456104415 263.3677380790168 H 0.0 **** 0.06
6000 H 172.61559631951286 43.33390705970294 263.0957733843399 H 0.0 **** 0.06
6001 C 273.34564705990715 305.555987858422 235.61463083179805 C 0.0 **** -0.24
6002 H 274.2199114641055 306.207541846047 235.6095804622112 H 0.0 **** 0.06
6003 H 273.331132768517 304.9603336823568 234.7011535228762 H 0.0 **** 0.06
6004 H 272.4414537162905 306.1623667781211 235.66835562353754 H 0.0 **** 0.06
6005 H 273.3914527707967 304.89403877472944 236.4796207734163 H 0.0 **** 0.06
6006 C 193.23025228790453 99.15949802054968 89.75201920609553 C 0.0 **** -0.24
6007 H 194.16672037776289 99.56473627920431 89.36862538677107 H 0.0 **** 0.06
6008 H 192.54944793902212 99.97850569181094 89.98514626418489 H 0.0 **** 0.06
6009 H 193.4271708835475 98.58192647266347 90.655152376404 H 0.0 **** 0.06
6010 H 192.77746794484693 98.51453701078356 88.99899929655356 H 0.0 **** 0.06
6011 C 286.43982022873985 51.65970964702893 301.8617964070705 C 0.0 **** -0.24
6012 H 286.56300650812693 50.93347290529718 301.058216487884 H 0.0 **** 0.06
6013 H 287.382951368927 51.772724985197925 302.39716781015585 H 0.0 **** 0.06
6014 H 285.6709999933019 51.3114248174756 302.5510245768105 H 0.0 **** 0.06
6015 H 286.1430752755223 52.61989634990633 301.4416092209102 H 0.0 **** 0.06
6016 C 96.40056540385012 161.93244606441613 221.08067361564304 C 0.0 **** -0.24
6017 H 96.49124260618973 161.88617827071477 222.16606031523287 H 0.0 **** 0.06
6018 H 96.71487988003071 162.9153371427588 220.73116984849386 H 0.0 **** 0.06
6019 H 95.36247178914309 161.7602713878731 220.79624457675428 H 0.0 **** 0.06
6020 H 97.03299670654195 161.16647726533176 220.63101952683007 H 0.0 **** 0.06
6021 C 42.53997645829733 202.03160167295619 103.44187094649897 C 0.0 **** -0.24
6022 H 41.9870738257282 201.2711556267027 102.88938850823237 H 0.0 **** 0.06
6023 H 42.17159916822513 203.02029457241088 103.16582588027842 H 0.0 **** 0.06
6024 H 43.59947371168616 201.95769794560067 103.19926189170013 H 0.0 **** 0.06
6025 H 42.39985424125729 201.87726380262325 104.51146756825068 H 0.0 **** 0.06
6026 C 76.63459288999897 249.21744020963817 104.4614387127317 C 0.0 **** -0.24
6027 H 77.04517928938913 249.6016445746926 103.52778130040886 H 0.0 **** 0.06
6028 H 75.59193754274736 248.93728723870572 104.31233979082555 H 0.0 **** 0.06
6029 H 76.69894913391201 249.98732755608773 105.23011751166837 H 0.0 **** 0.06
6030 H 77.20510718635191 248.342822458379 104.77468554650619 H 0.0 **** 0.06
6031 C 94.64233097827139 87.3553326775068 188.08265317022432 C 0.0 **** -0.24
6032 H 95.57795071364819 87.38512521357086 187.52384777703367 H 0.0 **** 0.06
6033 H 94.84586181358804 87.52129763537948 189.1405899274132 H 0.0 **** 0.06
6034 H 94.17293385259939 86.37973286091312 187.9503100814237 H 0.0 **** 0.06
6035 H 93.97390518014453 88.13282603787104 187.71455349486024 H 0.0 **** 0.06
6036 C 194.79003275207623 290.0036758749444 154.09507030205492 C 0.0 **** -0.24
6037 H 194.14902423360246 290.63480898068264 153.47928752102843 H 0.0 **** 0.06
6038 H 195.6670248656664 289.70639814750996 153.5214143698842 H 0.0 **** 0.06
6039 H 194.23762994422856 289.11485841203523 154.40221523798783 H 0.0 **** 0.06
6040 H 195.1048188744728 290.5584359097308 154.97917852657577 H 0.0 **** 0.06
6041 C 181.4869020314767 47.76274186361621 257.0151120997614 C 0.0 **** -0.24
6042 H 181.56179324630813 46.785756724352325 257.4931431613892 H 0.0 **** 0.06
6043 H 182.47781561651067 48.08748041792734 256.6952191560165 H 0.0 **** 0.06
6044 H 181.0782684278579 48.48342732867775 257.72297252765657 H 0.0 **** 0.06
6045 H 180.82953696676515 47.692452818025345 256.14837916939774 H 0.0 **** 0.06
6046 C 139.66410434746786 44.70751789663885 145.90688482685115 C 0.0 **** -0.24
6047 H 139.67633936229174 45.52342415003224 146.6298659068678 H 0.0 **** 0.06
6048 H 139.69974799486738 43.754821394651685 146.43523911636595 H 0.0 **** 0.06
6049 H 140.52929954115754 44.79187393194587 145.24951758949484 H 0.0 **** 0.06
6050 H 138.7506539364152 44.760217417954294 145.314586374701 H 0.0 **** 0.06
6051 C 101.5074774858821 254.77117544003715 110.12393535368335 C 0.0 **** -0.24
6052 H 101.62735174629674 254.6728447342091 109.044488000141 H 0.0 **** 0.06
6053 H 100.76748352237908 255.54270909474994 110.33765036365835 H 0.0 **** 0.06
6054 H 102.46127037701967 255.04815852373252 110.57130414477768 H 0.0 **** 0.06
6055 H 101.17347987018013 253.82096918453072 110.53948921333415 H 0.0 **** 0.06
6056 C 3.044249509845841 155.8791050081249 4.039251578529488 C 0.0 **** -0.24
6057 H 2.9503804222711523 156.57149818473414 3.2036262880669852 H 0.0 **** 0.06
6058 H 2.1892607320172743 155.20299535158188 4.049704935609341 H 0.0 **** 0.06
6059 H 3.0767387152755106 156.4397018852756 4.973408921927231 H 0.0 **** 0.06
6060 H 3.962952651352353 155.302187335177 3.9310070014981164 H 0.0 **** 0.06
6061 C 179.37771931152662 298.4613673554388 106.65547900274885 C 0.0 **** -0.24
6062 H 178.75165705134907 298.4653434363742 107.5481164376099 H 0.0 **** 0.06
6063 H 179.23270874146084 299.3914288043998 106.10650087696308 H 0.0 **** 0.06
6064 H 179.10100574783957 297.61769134566964 106.0229722868931 H 0.0 **** 0.06
6065 H 180.42433758713042 298.36887202385475 106.94608208283859 H 0.0 **** 0.06
6066 C 21.37452569338143 164.643210179581 130.13304756552841 C 0.0 **** -0.24
6067 H 21.767795724908922 164.83363023662628 129.13379322348234 H 0.0 **** 0.06
6068 H 20.836472414263966 165.5240684793652 130.48446423857263 H 0.0 **** 0.06
6069 H 22.198110580656333 164.424916718931 130.81254682708354 H 0.0 **** 0.06
6070 H 20.695592016885982 163.79187931611705 130.0986939872609 H 0.0 **** 0.06
6071 C 194.71530836100698 34.94014562474115 139.29938729191886 C 0.0 **** -0.24
6072 H 194.66299967101878 33.869638942195024 139.09962344164475 H 0.0 **** 0.06
6073 H 193.96740456943974 35.458028259021035 138.69968333029985 H 0.0 **** 0.06
6074 H 195.70824577859776 35.308305148929975 139.0415943544049 H 0.0 **** 0.06
6075 H 194.5238614488893 35.12145723008766 140.3573005843337 H 0.0 **** 0.06
6076 C 313.50280965344405 89.84823771207806 269.1274057840335 C 0.0 **** -0.24
6077 H 314.59112475638295 89.82684129798349 269.17920132172014 H 0.0 **** 0.06
6078 H 313.17325126452295 90.84489068586728 268.83279337617955 H 0.0 **** 0.06
6079 H 313.08798387399946 89.60170248842675 270.10448628411757 H 0.0 **** 0.06
6080 H 313.1596090146208 89.11959229210981 268.39246325105273 H 0.0 **** 0.06
6081 C 61.188873008365334 163.2333663318928 35.53596421068164 C 0.0 **** -0.24
6082 H 60.10953355087864 163.36907175141772 35.46377884646432 H 0.0 **** 0.06
6083 H 61.5990816402053 163.95562729099146 36.24194036913991 H 0.0 **** 0.06
6084 H 61.63946037969146 163.3858384858787 34.555063800582786 H 0.0 **** 0.06
6085 H 61.40521676868045 162.2231122864854 35.88271698866424 H 0.0 **** 0.06
6086 C 156.20668731088125 229.12136836726012 57.967525448087315 C 0.0 **** -0.24
6087 H 156.69039547249463 229.10950109370933 56.990769115913935 H 0.0 **** 0.06
6088 H 156.95706608217642 229.26833989340568 58.74335043682373 H 0.0 **** 0.06
6089 H 155.69466465836598 228.17356744129862 58.13038291063796 H 0.0 **** 0.06
6090 H 155.48272764734213 229.93639597523378 58.00336900845181 H 0.0 **** 0.06
6091 C 48.67637666554282 93.36152019113541 121.45655780891994 C 0.0 **** -0.24
6092 H 49.0945050804886 92.43475211850787 121.85209785427597 H 0.0 **** 0.06
6093 H 47.58938195354986 93.33488758704874 121.54308848486053 H 0.0 **** 0.06
6094 H 48.95514772961465 93.46614123316218 120.4087007218786 H 0.0 **** 0.06
6095 H 49.06658770436917 94.20637707015831 122.02360855338574 H 0.0 **** 0.06
6096 C 101.67380416274989 228.1498185401125 302.5084805132328 C 0.0 **** -0.24
6097 H 101.61920352778421 227.0755884294028 302.3310804250483 H 0.0 **** 0.06
6098 H 100.96691435069997 228.66079626346016 301.85489432213706 H 0.0 **** 0.06
6099 H 102.68394934764311 228.50071885319278 302.2974520188167 H 0.0 **** 0.06
6100 H 101.42596486066674 228.35900631225633 303.54867256383267 H 0.0 **** 0.06
6101 C 310.66448896632426 252.01049898891782 160.39285355480143 C 0.0 **** -0.24
6102 H 311.0892000881772 252.09378596202288 161.39291709781213 H 0.0 **** 0.06
6103 H 310.00497551967686 252.8585099457564 160.20670903153507 H 0.0 **** 0.06
6104 H 310.0953260356192 251.08391589093978 160.31577779772232 H 0.0 **** 0.06
6105 H 311.46721177792824 252.00609038000457 159.6566124296744 H 0.0 **** 0.06
6106 C 107.98610125849623 247.79503159277957 275.04499012525093 C 0.0 **** -0.24
6107 H 107.73433781513535 248.53159906579967 275.80747741866566 H 0.0 **** 0.06
6108 H 107.28659080544233 246.96088320087617 275.1005053189858 H 0.0 **** 0.06
6109 H 109.0004806069573 247.43157414687118 275.2123447688888 H 0.0 **** 0.06
6110 H 107.92377454138551 248.25661280231952 274.0593185171472 H 0.0 **** 0.06
6111 C 47.471952601292855 168.46855186023055 240.22869078543596 C 0.0 **** -0.24
6112 H 46.51562194296355 168.50166381861015 239.7064661006899 H 0.0 **** 0.06
6113 H 48.28295057542135 168.46331611884875 239.5003054315475 H 0.0 **** 0.06
6114 H 47.522688941162784 167.56391916777363 240.83618965291873 H 0.0 **** 0.06
6115 H 47.56611531180829 169.342915523327 240.87150795364667 H 0.0 **** 0.06
6116 C 116.93239614756749 115.50644357103081 222.84267597032897 C 0.0 **** -0.24
6117 H 116.90386502494837 116.58607733735673 222.6898909478794 H 0.0 **** 0.06
6118 H 116.34237404493933 115.01475542172562 222.06991466991627 H 0.0 **** 0.06
6119 H 116.51940909686488 115.26833850809061 223.8227622030809 H 0.0 **** 0.06
6120 H 117.9638038867381 115.16013340761549 222.7893684722188 H 0.0 **** 0.06
6121 C 65.68954477079092 68.16903679141743 264.0639594122607 C 0.0 **** -0.24
6122 H 65.24540402251054 68.47374511697367 263.11687220539875 H 0.0 **** 0.06
6123 H 64.96349623448805 67.58869814787323 264.6345441456744 H 0.0 **** 0.06
6124 H 65.97396693069695 69.05434711437076 264.6330112716854 H 0.0 **** 0.06
6125 H 66.57284530851032 67.5602786257684 263.8731610848451 H 0.0 **** 0.06
6126 C 143.60540163452137 69.27796672425131 143.7775485035014 C 0.0 **** -0.24
6127 H 143.6144738190034 69.40068241691324 142.69488655230705 H 0.0 **** 0.06
6128 H 144.3757681491901 69.90929945598734 144.22139168424184 H 0.0 **** 0.06
6129 H 143.8033161772786 68.23500796197075 144.02679979877925 H 0.0 **** 0.06
6130 H 142.6293186355715 69.56616475712471 144.168053591556 H 0.0 **** 0.06
6131 C 49.516654464670324 300.2257534396241 169.02064866228784 C 0.0 **** -0.24
6132 H 48.80324077694755 300.84936919742415 168.48238697464114 H 0.0 **** 0.06
6133 H 50.444609492200954 300.16192884040095 168.45152016909492 H 0.0 **** 0.06
6134 H 49.10033939923909 299.2267652903343 169.14985699526238 H 0.0 **** 0.06
6135 H 49.71867392884823 300.66436746870056 169.998056060157 H 0.0 **** 0.06
6136 C 97.69725746183948 240.9305074075031 36.28392497284176 C 0.0 **** -0.24
6137 H 98.16776226116536 239.94841585918962 36.23531658766572 H 0.0 **** 0.06
6138 H 96.71570117694765 240.8870177340431 35.81116048474985 H 0.0 **** 0.06
6139 H 98.31970872590148 241.65795556233272 35.762932693004615 H 0.0 **** 0.06
6140 H 97.58568015746931 241.22799526977082 37.32703322755026 H 0.0 **** 0.06
6141 C 302.6376942526289 83.7861553065126 176.18831243751362 C 0.0 **** -0.24
6142 H 303.45663954575855 83.34218118401444 176.75487658957587 H 0.0 **** 0.06
6143 H 302.1455118425172 83.01480873447326 175.5965537977405 H 0.0 **** 0.06
6144 H 303.0309293009974 84.557657206756 175.52614224370473 H 0.0 **** 0.06
6145 H 301.91941393031215 84.2303356084227 176.87706245431468 H 0.0 **** 0.06
6146 C 240.51474461664674 39.55469777705312 215.68078758322187 C 0.0 **** -0.24
6147 H 239.44720405079892 39.77305948194456 215.6602533570599 H 0.0 **** 0.06
6148 H 241.0777812866836 40.48549922109942 215.60723669547303 H 0.0 **** 0.06
6149 H 240.7694220789977 38.908882381229375 214.84023525512598 H 0.0 **** 0.06
6150 H 240.76507775216928 39.051144588655745 216.61412077894428 H 0.0 **** 0.06
6151 C 47.59744556245772 87.83619436802059 144.44201918738352 C 0.0 **** -0.24
6152 H 46.90031378260062 87.791362099069 143.60591949569286 H 0.0 **** 0.06
6153 H 47.847047390863565 86.82383517020045 144.75976929665802 H 0.0 **** 0.06
6154 H 47.13782070571543 88.37504256044829 145.270089210368 H 0.0 **** 0.06
6155 H 48.50486931294904 88.353157395902 144.13056018066516 H 0.0 **** 0.06
6156 C 69.14317431832166 290.68060612125447 181.749814768622 C 0.0 **** -0.24
6157 H 68.99800443711149 291.750477012949 181.8979070658737 H 0.0 **** 0.06
6158 H 68.5262922815038 290.12842528846426 182.45961349763633 H 0.0 **** 0.06
6159 H 70.19246893597426 290.4312253524921 181.90769886419605 H 0.0 **** 0.06
6160 H 68.85518590395438 290.41306562757495 180.7331161368861 H 0.0 **** 0.06
6161 C 104.80307585959616 97.35824306860522 116.0328336229185 C 0.0 **** -0.24
6162 H 104.73959178951262 96.79605852524674 115.1009121326345 H 0.0 **** 0.06
6163 H 104.50615764173173 96.71845948378305 116.86327138817629 H 0.0 **** 0.06
6164 H 104.13875274463851 98.22135560750803 115.98198190181807 H 0.0 **** 0.06
6165 H 105.82767337497879 97.69764560689308 116.18239697099762 H 0.0 **** 0.06
6166 C 76.35426891540496 29.565098896232428 183.2115591382203 C 0.0 **** -0.24
6167 H 76.42478498251452 29.563679146985578 184.29908836389438 H 0.0 **** 0.06
6168 H 77.35722099609538 29.56847346331614 182.7825543661216 H 0.0 **** 0.06
6169 H 75.8151779525785 30.452969416359963 182.88356643088025 H 0.0 **** 0.06
6170 H 75.82144957393285 28.67367352094493 182.88091325739492 H 0.0 **** 0.06
6171 C 177.3114631473839 246.44740583394432 282.89512464067946 C 0.0 **** -0.24
6172 H 176.74035250409742 246.5396221815461 281.97173516446975 H 0.0 **** 0.06
6173 H 177.0126612962901 247.23394129622955 283.5872877467276 H 0.0 **** 0.06
6174 H 178.37550788007894 246.54081678248613 282.6739379338379 H 0.0 **** 0.06
6175 H 177.1191128477409 245.47326674171427 283.34531986887976 H 0.0 **** 0.06
6176 C 206.72345278164352 46.80078287126253 178.37790335388593 C 0.0 **** -0.24
6177 H 206.6577848821144 47.88886664733775 178.35316923731926 H 0.0 **** 0.06
6178 H 206.42539320585877 46.39619874587922 177.41066888150215 H 0.0 **** 0.06
6179 H 206.0616438207087 46.41560897192315 179.15326605217018 H 0.0 **** 0.06
6180 H 207.75002807327058 46.50451371670647 178.59643050186088 H 0.0 **** 0.06
6181 C 217.95102007398503 195.67198749721263 206.96710533218015 C 0.0 **** -0.24
6182 H 217.82284532719586 195.41667388040418 205.9151977595327 H 0.0 **** 0.06
6183 H 217.93528101830867 196.75678428420758 207.08157616753675 H 0.0 **** 0.06
6184 H 218.9047477531871 195.2829604833617 207.32145098142803 H 0.0 **** 0.06
6185 H 217.14063260489633 195.23319759156914 207.5488199671879 H 0.0 **** 0.06
6186 C 219.55436383193393 278.5741693901703 310.96867569946625 C 0.0 **** -0.24
6187 H 220.28989858149913 279.35873444508474 311.14773339698286 H 0.0 **** 0.06
6188 H 220.05989571869893 277.6103392313118 310.9025372847947 H 0.0 **** 0.06
6189 H 219.0295414133021 278.7750386322847 310.0346268104839 H 0.0 **** 0.06
6190 H 218.83877411942032 278.55376291790594 311.7908717168045 H 0.0 **** 0.06
6191 C 24.727304731170335 253.92343836332603 138.44756660379926 C 0.0 **** -0.24
6192 H 25.421825706750752 254.76267793278438 138.4024898666614 H 0.0 **** 0.06
6193 H 24.725740586964832 253.50888086325807 139.4557005150162 H 0.0 **** 0.06
6194 H 25.03892011519352 253.15608300173147 137.7390463495516 H 0.0 **** 0.06
6195 H 23.725012723162507 254.2680014111734 138.19350876474675 H 0.0 **** 0.06
6196 C 60.052174079078696 307.2724176461552 40.50704300398684 C 0.0 **** -0.24
6197 H 59.015155865645426 307.53738569013206 40.30495514388926 H 0.0 **** 0.06
6198 H 60.59127483398959 307.1707785744509 39.56454885000477 H 0.0 **** 0.06
6199 H 60.08714662634142 306.3269778854209 41.04876427150205 H 0.0 **** 0.06
6200 H 60.51568228295389 308.0529094254603 41.10965570965041 H 0.0 **** 0.06
6201 C 192.53763062517766 264.6117183481073 276.2059944146561 C 0.0 **** -0.24
6202 H 193.39745498089354 265.2793050646717 276.2449353423394 H 0.0 **** 0.06
6203 H 192.6143564561424 263.87360872624043 277.004425803872 H 0.0 **** 0.06
6204 H 192.51716624305323 264.1034457110553 275.2418432405487 H 0.0 **** 0.06
6205 H 191.62249644336805 265.1899756936279 276.3318761836176 H 0.0 **** 0.06
6206 C 288.7520726747441 140.89478811918264 228.2449576395626 C 0.0 **** -0.24
6207 H 289.7449595102613 140.77473155362674 227.81170309294336 H 0.0 **** 0.06
6208 H 288.27136966723754 139.91944791626997 228.32687504597857 H 0.0 **** 0.06
6209 H 288.1532099673728 141.54371512162498 227.6054073630743 H 0.0 **** 0.06
6210 H 288.8400082774059 141.34188453372946 229.23567782233962 H 0.0 **** 0.06
6211 C 150.78382007280203 73.11309260371803 194.8611567646434 C 0.0 **** -0.24
6212 H 150.56190950620805 72.07007957260834 195.08905558345322 H 0.0 **** 0.06
6213 H 150.49416344880177 73.73863344585436 195.70558677693714 H 0.0 **** 0.06
6214 H 150.22526012578726 73.41700706981658 193.97517418112204 H 0.0 **** 0.06
6215 H 151.8510746932418 73.22506576633876 194.67432280459843 H 0.0 **** 0.06
6216 C 96.92166023553756 75.30302987901996 117.5315859248758 C 0.0 **** -0.24
6217 H 97.80179221933045 74.68393283096248 117.70227242516572 H 0.0 **** 0.06
6218 H 96.37075337488724 75.41593988541729 118.46569154761204 H 0.0 **** 0.06
6219 H 96.2823734937395 74.82934044675116 116.7872868393452 H 0.0 **** 0.06
6220 H 97.23268550262696 76.28405100764667 117.17241997642407 H 0.0 **** 0.06
6221 C 77.89878790430038 289.8022600540111 168.41124700127682 C 0.0 **** -0.24
6222 H 78.87425676887312 289.8946123546592 168.88758920144153 H 0.0 **** 0.06
6223 H 77.79594120464424 288.804939137882 167.98457863729266 H 0.0 **** 0.06
6224 H 77.80982478930505 290.5469972624531 167.61999394008444 H 0.0 **** 0.06
6225 H 77.11540971132152 289.96441799969193 169.15172641232562 H 0.0 **** 0.06
6226 C 149.1507683913232 38.08845956808818 182.77061228566436 C 0.0 **** -0.24
6227 H 148.08154432769246 38.27982977246339 182.68391918725786 H 0.0 **** 0.06
6228 H 149.60102993420185 38.085913106640305 181.77818021922207 H 0.0 **** 0.06
6229 H 149.30925241219734 37.11976575740616 183.24422232020174 H 0.0 **** 0.06
6230 H 149.61096702248886 38.86932115664084 183.37709621369294 H 0.0 **** 0.06
6231 C 130.7914418449678 53.64606412658998 247.9262417671264 C 0.0 **** -0.24
6232 H 131.54762509916054 53.13742542688692 247.32853790423454 H 0.0 **** 0.06
6233 H 130.22296756098933 54.324877196626176 247.29128259526124 H 0.0 **** 0.06
6234 H 131.2773061975571 54.21271434750258 248.72129441519473 H 0.0 **** 0.06
6235 H 130.11874826002023 52.90836509846662 248.3645314405425 H 0.0 **** 0.06
6236 C 66.28214479212534 101.28323378410784 33.342625439989206 C 0.0 **** -0.24
6237 H 66.28500922602382 102.15617732850902 32.69036727757043 H 0.0 **** 0.06
6238 H 66.9221536997915 101.47277233334034 34.20512824720771 H 0.0 **** 0.06
6239 H 66.65681214434397 100.41861849716125 32.794059916000464 H 0.0 **** 0.06
6240 H 65.26460409834209 101.08536697742076 33.68094631917822 H 0.0 **** 0.06
6241 C 70.32641128530074 45.50691127774351 263.1535146438646 C 0.0 **** -0.24
6242 H 71.17234065044067 44.82120923810274 263.11992049841047 H 0.0 **** 0.06
6243 H 69.53685314672157 45.07943524458332 263.77113874843303 H 0.0 **** 0.06
6244 H 69.95074244134071 45.66948449299261 262.142614932971 H 0.0 **** 0.06
6245 H 70.64713776677121 46.45833078136371 263.5788695617374 H 0.0 **** 0.06
6246 C 242.43757094077873 232.37250735518916 132.97552260761475 C 0.0 **** -0.24
6247 H 243.1319665425496 233.08322813066542 133.42417623763095 H 0.0 **** 0.06
6248 H 241.4140436047144 232.70003818322812 133.15703485991176 H 0.0 **** 0.06
6249 H 242.58861362696084 231.38772216994846 133.41797779979046 H 0.0 **** 0.06
6250 H 242.6174252500283 232.31917736287625 131.90153578659533 H 0.0 **** 0.06
6251 C 114.4389609400082 309.3470822126558 51.49876885452315 C 0.0 **** -0.24
6252 H 115.19765150002985 309.76870712444634 50.83880111168409 H 0.0 **** 0.06
6253 H 114.2727831840485 308.30186401322544 51.23923231368315 H 0.0 **** 0.06
6254 H 113.5088813065205 309.9036967725085 51.383280943744126 H 0.0 **** 0.06
6255 H 114.77763895950847 309.41660653279223 52.53224934092739 H 0.0 **** 0.06
6256 C 225.57184206297148 24.577953981967596 278.2442095502303 C 0.0 **** -0.24
6257 H 225.0822256909762 25.074169368537554 279.081356157665 H 0.0 **** 0.06
6258 H 226.57758582057852 24.97934187997396 278.12059078764565 H 0.0 **** 0.06
6259 H 224.99787872215057 24.748163119087167 277.3340857801871 H 0.0 **** 0.06
6260 H 225.63071264571693 23.506832182964843 278.44179422526076 H 0.0 **** 0.06
6261 C 221.89618841785443 160.85449794146314 41.59189340149999 C 0.0 **** -0.24
6262 H 220.97917408224023 160.63370322269827 41.04600811283933 H 0.0 **** 0.06
6263 H 221.68056840296416 161.55952015659022 42.3948317777153 H 0.0 **** 0.06
6264 H 222.62730178585252 161.2915501926393 40.910403173229156 H 0.0 **** 0.06
6265 H 222.29810462624448 159.9335682235461 42.01393861772283 H 0.0 **** 0.06
6266 C 41.897542974994366 36.49737983842118 178.3343132946552 C 0.0 **** -0.24
6267 H 42.55401109989535 35.76691929446457 178.80775109119458 H 0.0 **** 0.06
6268 H 42.1760830022092 37.50011020619962 178.6598630096238 H 0.0 **** 0.06
6269 H 40.86507750078454 36.29498046224589 178.61933941174908 H 0.0 **** 0.06
6270 H 41.99647607148984 36.42597089514197 177.25097430938075 H 0.0 **** 0.06
6271 C 121.88246102079933 44.60037270240255 199.33458791758454 C 0.0 **** -0.24
6272 H 122.8936447631817 44.959043244575724 199.14356899414588 H 0.0 **** 0.06
6273 H 121.63298176979981 43.81715218593558 198.61815782354375 H 0.0 **** 0.06
6274 H 121.17850613102547 45.425350174096224 199.2318502518201 H 0.0 **** 0.06
6275 H 121.82529899374623 44.198289001367755 200.3461572678799 H 0.0 **** 0.06
6276 C 166.62757006288592 25.360141530509964 54.9213537482097 C 0.0 **** -0.24
6277 H 165.73796871165814 25.973842522472268 54.77956912848987 H 0.0 **** 0.06
6278 H 166.3677119849774 24.4727937842828 55.49801491702215 H 0.0 **** 0.06
6279 H 167.38237272609956 25.934440485564807 55.45933981094785 H 0.0 **** 0.06
6280 H 167.02141450084014 25.061255627288176 53.950985201574866 H 0.0 **** 0.06
6281 C 176.66672969307422 126.97643747264826 305.33908953576264 C 0.0 **** -0.24
6282 H 175.9948238745713 127.43689114866604 306.063356981501 H 0.0 **** 0.06
6283 H 177.30407837618424 127.74297601028994 304.8964602510873 H 0.0 **** 0.06
6284 H 176.0816992657172 126.49374188787789 304.5565151178692 H 0.0 **** 0.06
6285 H 177.28738966847624 126.23382643095587 305.84103015777583 H 0.0 **** 0.06
6286 C 19.186392396113092 180.32859557147577 66.33978423567879 C 0.0 **** -0.24
6287 H 19.595852032336765 179.5385385352978 66.9698541041306 H 0.0 **** 0.06
6288 H 18.628118200190627 181.03306364361623 66.95665538034544 H 0.0 **** 0.06
6289 H 18.522430897419483 179.8905096536459 65.59475859480838 H 0.0 **** 0.06
6290 H 20.00134433311925 180.8512096467781 65.83824338807287 H 0.0 **** 0.06
6291 C 207.05075272044309 8.326601731329163 284.2130005103105 C 0.0 **** -0.24
6292 H 206.53668435052248 9.071332319374761 283.6055168385754 H 0.0 **** 0.06
6293 H 208.11821403154065 8.549899933114673 284.23394376361523 H 0.0 **** 0.06
6294 H 206.89464071160995 7.3378722412408734 283.7826118697 H 0.0 **** 0.06
6295 H 206.654680383019 8.347922967130344 285.22789136892555 H 0.0 **** 0.06
6296 C 121.7485732357072 60.638856270050866 107.2891521820446 C 0.0 **** -0.24
6297 H 122.76724268947208 61.01273611447911 107.39037349458684 H 0.0 **** 0.06
6298 H 121.57849904460707 59.84793902185234 108.01927136647564 H 0.0 **** 0.06
6299 H 121.60584429925606 60.24261523502864 106.28383390282201 H 0.0 **** 0.06
6300 H 121.0435204937097 61.45262255802811 107.46208111115735 H 0.0 **** 0.06
6301 C 238.45537612612912 289.9474471590989 266.54157234802534 C 0.0 **** -0.24
6302 H 238.62962999640274 291.0016857808265 266.33059638031284 H 0.0 **** 0.06
6303 H 239.3838984920681 289.48533282439536 266.876784083216 H 0.0 **** 0.06
6304 H 238.10567962980974 289.4481544902669 265.63707218304256 H 0.0 **** 0.06
6305 H 237.7003652193322 289.85346095101295 267.32280501387345 H 0.0 **** 0.06
6306 C 194.12310642676385 217.0308710172922 239.69162678742953 C 0.0 **** -0.24
6307 H 194.97623806098528 216.3862642337203 239.90658228458327 H 0.0 **** 0.06
6308 H 193.33269783978938 216.4422925540933 239.22614960533315 H 0.0 **** 0.06
6309 H 194.43137634012754 217.82691007922153 239.01505689826644 H 0.0 **** 0.06
6310 H 193.75361659081887 217.46618222651017 240.6205550763271 H 0.0 **** 0.06
6311 C 68.70637720074282 68.5335702470723 232.12616618831785 C 0.0 **** -0.24
6312 H 68.48683803809914 68.34217441843802 231.0757902828134 H 0.0 **** 0.06
6313 H 68.40919327182505 69.55119561733224 232.37833213621263 H 0.0 **** 0.06
6314 H 69.77523964403824 68.41225822312722 232.30114281172712 H 0.0 **** 0.06
6315 H 68.15399934156895 67.82807985688572 232.74629871998957 H 0.0 **** 0.06
6316 C 102.91049150975368 258.941066342703 193.33914833790521 C 0.0 **** -0.24
6317 H 102.33728126505679 258.03168355315086 193.15842947378133 H 0.0 **** 0.06
6318 H 103.91324917312096 258.82718646788527 192.92620427787125 H 0.0 **** 0.06
6319 H 102.9781642566827 259.12005789065745 194.41311611380894 H 0.0 **** 0.06
6320 H 102.4132750576338 259.7849311385287 192.86104232956052 H 0.0 **** 0.06
6321 C 289.38585935877023 84.06939606608026 157.1244748185618 C 0.0 **** -0.24
6322 H 288.4751693345621 84.45857277035117 156.6692731904389 H 0.0 **** 0.06
6323 H 289.32482259892066 84.17723987145706 158.20771928799405 H 0.0 **** 0.06
6324 H 290.2448763508661 84.62764520837712 156.75111968446475 H 0.0 **** 0.06
6325 H 289.49741911398695 83.01557557585659 156.86853117810813 H 0.0 **** 0.06
6326 C 68.00862301394582 105.65516131332706 141.4126104998567 C 0.0 **** -0.24
6327 H 67.26105725668569 105.8032966616689 140.63298770043872 H 0.0 **** 0.06
6328 H 67.81317833493179 104.7146726143861 141.9292397106059 H 0.0 **** 0.06
6329 H 67.95751586161498 106.47871082141606 142.12518654417445 H 0.0 **** 0.06
6330 H 69.00070218081595 105.62456287508152 140.96372632140978 H 0.0 **** 0.06
6331 C 7.647239317764928 261.67457853497916 0.6355090916454742 C 0.0 **** -0.24
6332 H 8.193051883625714 260.76657047408884 0.3811189390186769 H 0.0 **** 0.06
6333 H 6.681944093159601 261.67170903404536 0.12986470825535434 H 0.0 **** 0.06
6334 H 8.221688855812147 262.544496379204 0.3173015775286103 H 0.0 **** 0.06
6335 H 7.493258573885825 261.7153724465774 1.713758198647099 H 0.0 **** 0.06
6336 C 250.70743753273402 109.290769796602 141.4064531020469 C 0.0 **** -0.24
6337 H 250.87201033306846 108.31229404237683 141.85876753489185 H 0.0 **** 0.06
6338 H 249.8650279831362 109.77878819358381 141.89651283750587 H 0.0 **** 0.06
6339 H 250.48959994555864 109.16801715597208 140.3450606538195 H 0.0 **** 0.06
6340 H 251.60207971883025 109.90042739876355 141.5260328206754 H 0.0 **** 0.06
6341 C 250.81510115353825 79.1106578373666 281.74820794185695 C 0.0 **** -0.24
6342 H 250.24547790956723 78.25203280516999 281.3926354961856 H 0.0 **** 0.06
6343 H 251.79406798956904 78.77780577779535 282.095044786001 H 0.0 **** 0.06
6344 H 250.28056433903083 79.58567878539498 282.5703343549144 H 0.0 **** 0.06
6345 H 250.94121211624704 79.82486236303532 280.93452048930766 H 0.0 **** 0.06
6346 C 100.10744049430338 121.376560746627 3.563686037903352 C 0.0 **** -0.24
6347 H 100.27271276062555 122.26247389593436 4.177505493071493 H 0.0 **** 0.06
6348 H 100.68545485551954 121.45993642481031 2.643221347988842 H 0.0 **** 0.06
6349 H 99.04786096965762 121.29455457359722 3.3225624884524763 H 0.0 **** 0.06
6350 H 100.42477344099726 120.49044742684364 4.113810875854952 H 0.0 **** 0.06
6351 C 265.1223903512669 72.61019878630029 67.23882631092843 C 0.0 **** -0.24
6352 H 265.07777265201975 73.55996253029704 66.7058681124065 H 0.0 **** 0.06
6353 H 264.12872329631034 72.16194381402383 67.26635117234306 H 0.0 **** 0.06
6354 H 265.4736616618969 72.78123362413868 68.25653005057904 H 0.0 **** 0.06
6355 H 265.80995259041634 71.93863481996931 66.72490087346881 H 0.0 **** 0.06
6356 C 236.6290747611312 131.86862682562847 311.3835261255683 C 0.0 **** -0.24
6357 H 235.92100691779638 131.49055625473042 312.12119402114774 H 0.0 **** 0.06
6358 H 236.82163587903017 131.09830204437873 310.636910229431 H 0.0 **** 0.06
6359 H 237.56230618960782 132.13638059039707 311.8800967421159 H 0.0 **** 0.06
6360 H 236.20988916556658 132.7502697764809 310.89759557673045 H 0.0 **** 0.06
6361 C 232.40764623031947 263.10756310052545 91.92758828276791 C 0.0 **** -0.24
6362 H 231.686287315585 263.91908933166036 92.02677419540862 H 0.0 **** 0.06
6363 H 233.35001883194423 263.50537923776176 91.5509205896318 H 0.0 **** 0.06
6364 H 232.0227868199289 262.36309411369876 91.23109383992258 H 0.0 **** 0.06
6365 H 232.57047225711423 262.64540495605684 92.90079785965992 H 0.0 **** 0.06
6366 C 269.22921535682764 169.66427037202385 229.27767763245555 C 0.0 **** -0.24
6367 H 269.79206607632443 170.13257650454312 228.46945378394014 H 0.0 **** 0.06
6368 H 268.3164334508529 169.22461470654218 228.87563107059026 H 0.0 **** 0.06
6369 H 268.97404348958435 170.41491445802365 230.0255092465519 H 0.0 **** 0.06
6370 H 269.8364731202999 168.88406007624963 229.73824061380896 H 0.0 **** 0.06
6371 C 217.03071835981314 229.44834398685944 117.15531502381913 C 0.0 **** -0.24
6372 H 216.72536273952187 228.82405711687403 117.99450343833516 H 0.0 **** 0.06
6373 H 216.98175881286534 230.49796168298622 117.44617067071812 H 0.0 **** 0.06
6374 H 216.36359864727115 229.27316237268263 116.31064879028764 H 0.0 **** 0.06
6375 H 218.0520801574428 229.1978874036705 116.86898841438395 H 0.0 **** 0.06
6376 C 130.4765230657403 307.0535048509723 163.21767496586114 C 0.0 **** -0.24
6377 H 130.22818785488343 307.7958679175701 163.97677578552612 H 0.0 **** 0.06
6378 H 129.7557977877653 306.23700911950573 163.26150582035592 H 0.0 **** 0.06
6379 H 131.47743881004718 306.66611680855135 163.4026087873291 H 0.0 **** 0.06
6380 H 130.4419937233694 307.5166755378491 162.23126785312928 H 0.0 **** 0.06
6381 C 286.9953936628548 295.49355942899854 301.5182354730725 C 0.0 **** -0.24
6382 H 285.96239355298485 295.14608944602116 301.5320098508379 H 0.0 **** 0.06
6383 H 287.2312117695126 295.9686438960666 302.4707242770387 H 0.0 **** 0.06
6384 H 287.12563614595047 296.21488546701033 300.711364979512 H 0.0 **** 0.06
6385 H 287.6618736065324 294.64581067510653 301.35944981623146 H 0.0 **** 0.06
6386 C 179.35866828692156 78.26563258283306 46.445943312644516 C 0.0 **** -0.24
6387 H 178.40956955572972 78.16205788461312 46.97096733691856 H 0.0 **** 0.06
6388 H 179.2931707569777 79.09152220123809 45.7369716870665 H 0.0 **** 0.06
6389 H 179.57925247381507 77.34262740043496 45.90954196972072 H 0.0 **** 0.06
6390 H 180.15250650269638 78.46535633592657 47.16610347695166 H 0.0 **** 0.06
6391 C 180.96633869803395 40.95541485761956 283.88378910837866 C 0.0 **** -0.24
6392 H 181.95780937702102 40.62350455779023 284.19061119361174 H 0.0 **** 0.06
6393 H 180.64444013022404 41.77832356662029 284.52396168664416 H 0.0 **** 0.06
6394 H 180.26201723255832 40.12831696082884 283.973626143681 H 0.0 **** 0.06
6395 H 181.00016625482067 41.292598762806676 282.84794449690685 H 0.0 **** 0.06
6396 C 117.78106149345803 83.92289783644588 213.901107239615 C 0.0 **** -0.24
6397 H 117.22963300747543 83.88481019863673 214.84028949259627 H 0.0 **** 0.06
6398 H 118.16342479127115 84.93138377265223 213.74505028643628 H 0.0 **** 0.06
6399 H 117.11715750951984 83.65502053945036 213.07913667805184 H 0.0 **** 0.06
6400 H 118.61333718092683 83.22008469773954 213.93929391246434 H 0.0 **** 0.06
6401 C 234.6050401387494 272.47379092880385 66.70791501466275 C 0.0 **** -0.24
6402 H 235.0554481516529 273.4321103246503 66.9673295658456 H 0.0 **** 0.06
6403 H 233.89259258417894 272.6157617984204 65.89492232910314 H 0.0 **** 0.06
6404 H 234.08920537202403 272.0667735566275 67.57788151075451 H 0.0 **** 0.06
6405 H 235.3846156011021 271.7807912233613 66.3913492914138 H 0.0 **** 0.06
6406 C 61.56202230702712 309.05916749941525 81.4219718154589 C 0.0 **** -0.24
6407 H 62.16253962311936 309.9600436902486 81.54878424625895 H 0.0 **** 0.06
6408 H 60.553221246943 309.2411475350313 81.79345942075656 H 0.0 **** 0.06
6409 H 62.013524535818135 308.24013655960607 81.9801961420236 H 0.0 **** 0.06
6410 H 61.5177653195461 308.7981964216319 80.36456708411788 H 0.0 **** 0.06
6411 C 245.48678482521518 143.81553212437433 112.76921732278598 C 0.0 **** -0.24
6412 H 246.28031751239254 144.45109764655865 112.37554398911078 H 0.0 **** 0.06
6413 H 245.6562252707236 142.78576550749293 112.45441103201537 H 0.0 **** 0.06
6414 H 244.52445241893025 144.15852319380446 112.38763663462757 H 0.0 **** 0.06
6415 H 245.48538311178243 143.8690633642104 113.85753611243953 H 0.0 **** 0.06
6416 C 60.00225538911465 308.0596476799345 131.11316368872247 C 0.0 **** -0.24
6417 H 59.83605092899634 309.01633831362153 130.61773008081673 H 0.0 **** 0.06
6418 H 59.35072001859007 307.98391127114047 131.983961603956 H 0.0 **** 0.06
6419 H 61.0426718818525 307.99018723638966 131.43021276544752 H 0.0 **** 0.06
6420 H 59.77902098700858 307.24845727100666 130.41948661947916 H 0.0 **** 0.06
6421 C 11.30220315536205 293.93865199933384 182.85068336934376 C 0.0 **** -0.24
6422 H 11.73959123647019 293.0556192570809 182.38457587799041 H 0.0 **** 0.06
6423 H 10.225265929883548 293.9425347759253 182.68293806935776 H 0.0 **** 0.06
6424 H 11.740892847784053 294.835683841071 182.41251606895548 H 0.0 **** 0.06
6425 H 11.504194699924355 293.92198782820475 183.92159189506413 H 0.0 **** 0.06
6426 C 195.89124982591642 79.43698729890804 150.4563598221174 C 0.0 **** -0.24
6427 H 196.5434062733795 79.34802717179102 151.32485530919422 H 0.0 **** 0.06
6428 H 196.49015332638385 79.6682529677361 149.57425260227012 H 0.0 **** 0.06
6429 H 195.16970232340418 80.23596840680136 150.62546552432588 H 0.0 **** 0.06
6430 H 195.36298158688197 78.49635759968456 150.30072310928523 H 0.0 **** 0.06
6431 C 117.91455313535894 304.33219904629715 14.525949545531347 C 0.0 **** -0.24
6432 H 117.14059732430692 303.6526108900419 14.880482595229452 H 0.0 **** 0.06
6433 H 118.89605890236251 303.912427659973 14.749417146748414 H 0.0 **** 0.06
6434 H 117.8085245308834 305.29535797245745 15.024560782223787 H 0.0 **** 0.06
6435 H 117.81529979456786 304.4675766940729 13.448914719202293 H 0.0 **** 0.06
6436 C 194.23907390223218 211.37004407195292 218.44801276918636 C 0.0 **** -0.24
6437 H 194.5116634825888 211.10430259474396 217.42756349091331 H 0.0 **** 0.06
6438 H 194.446330150495 212.42715839214057 218.6158981882461 H 0.0 **** 0.06
6439 H 194.82159917688386 210.7702151106974 219.14776978034786 H 0.0 **** 0.06
6440 H 193.17766823015194 211.17910451511727 218.6021245109329 H 0.0 **** 0.06
6441 C 77.11091774693654 263.49492552675014 94.70446837332528 C 0.0 **** -0.24
6442 H 76.80437518183544 264.1585167123909 95.5132512524921 H 0.0 **** 0.06
6443 H 77.94601045464634 263.9438816004516 94.16488151995355 H 0.0 **** 0.06
6444 H 76.27470367694255 263.3440579338972 94.02147470550602 H 0.0 **** 0.06
6445 H 77.41967052432202 262.53583162626296 95.11972487274102 H 0.0 **** 0.06
6446 C 21.81020469320299 0.36082963488071584 141.77750652490036 C 0.0 **** -0.24
6447 H 21.837509397264 1.0349901655986145 142.63323100111762 H 0.0 **** 0.06
6448 H 22.789872753557603 0.3407023526557822 141.29931018736508 H 0.0 **** 0.06
6449 H 21.063963914837444 0.7109925309935505 141.06295421351166 H 0.0 **** 0.06
6450 H 21.548817817001265 -0.6420105656040676 142.1125987137955 H 0.0 **** 0.06
6451 C 157.5015773544062 130.1863540459436 25.189105440790115 C 0.0 **** -0.24
6452 H 156.4415605566536 130.26267827263146 25.430180840788722 H 0.0 **** 0.06
6453 H 157.98281293663638 131.1491212589791 25.359299315570382 H 0.0 **** 0.06
6454 H 157.61674661597874 129.90116089336416 24.143775706544034 H 0.0 **** 0.06
6455 H 157.96515698412549 129.43101183656532 25.825144301314396 H 0.0 **** 0.06
6456 C 182.76111188175457 211.6182249130846 230.41555637017836 C 0.0 **** -0.24
6457 H 183.3481349862734 210.7016271050581 230.36283369541863 H 0.0 **** 0.06
6458 H 182.56304465481514 211.98094457199815 229.40680061487333 H 0.0 **** 0.06
6459 H 183.3169969152948 212.37294421508128 230.97232019518907 H 0.0 **** 0.06
6460 H 181.81701195091756 211.4157970931387 230.9219837107263 H 0.0 **** 0.06
6461 C 119.13905734240998 19.269006334891714 30.27475505203921 C 0.0 **** -0.24
6462 H 120.20745153364311 19.47332737851127 30.344941328342145 H 0.0 **** 0.06
6463 H 118.60637501098111 20.19413511808365 30.05539093332945 H 0.0 **** 0.06
6464 H 118.78369451267102 18.861238552614267 31.220500281958323 H 0.0 **** 0.06
6465 H 118.95930750758188 18.547596725865347 29.47743483754485 H 0.0 **** 0.06
6466 C 232.50714377269878 53.63769112890577 310.82359145924744 C 0.0 **** -0.24
6467 H 233.55902063484842 53.91368378932256 310.89532336763136 H 0.0 **** 0.06
6468 H 231.99237330653386 54.338311027992006 310.16513152874927 H 0.0 **** 0.06
6469 H 232.05526311833052 53.67023773964456 311.8141185586292 H 0.0 **** 0.06
6470 H 232.4235068921313 52.62937603346285 310.41813012889475 H 0.0 **** 0.06
6471 C 205.95428865989146 136.77146861087257 240.15123993800898 C 0.0 **** -0.24
6472 H 205.2109274820089 136.97343369560696 239.37948180382003 H 0.0 **** 0.06
6473 H 206.94376615017774 136.7151505401696 239.69644116330784 H 0.0 **** 0.06
6474 H 205.72333158818424 135.82440034862896 240.637925548334 H 0.0 **** 0.06
6475 H 205.93786570736103 137.57356568262662 240.88912470141 H 0.0 **** 0.06
6476 C 82.70462693518229 225.87253351890706 153.81817322366737 C 0.0 **** -0.24
6477 H 83.07372920208823 225.12488369989796 154.5203744879401 H 0.0 **** 0.06
6478 H 82.27999605971189 226.71119178495354 154.37000950617346 H 0.0 **** 0.06
6479 H 81.93694519977714 225.4267923455785 153.1851709233457 H 0.0 **** 0.06
6480 H 83.5283037644262 226.22567317328327 153.19664348062662 H 0.0 **** 0.06
6481 C 244.47068315498467 65.33288534489998 168.9834155534934 C 0.0 **** -0.24
6482 H 245.41917883526273 65.30573120108988 168.44647333169706 H 0.0 **** 0.06
6483 H 244.61550075411333 65.81252230121686 169.95127484160622 H 0.0 **** 0.06
6484 H 244.10772946576319 64.31624285685803 169.13092831980157 H 0.0 **** 0.06
6485 H 243.74119407680416 65.89868847989806 168.40263172631273 H 0.0 **** 0.06
6486 C 307.997559598581 252.28125659074112 215.43349418582838 C 0.0 **** -0.24
6487 H 307.6150368960951 253.15054753251303 214.898726956125 H 0.0 **** 0.06
6488 H 308.2545303450538 252.56761149290506 216.45457462674585 H 0.0 **** 0.06
6489 H 308.88527320465687 251.90360626826927 214.92710783838947 H 0.0 **** 0.06
6490 H 307.2333198550667 251.50394074909255 215.456603705757 H 0.0 **** 0.06
6491 C 202.34685507497113 153.53853667387347 125.71723663026711 C 0.0 **** -0.24
6492 H 202.71060153684311 154.0735510925055 124.84016113068293 H 0.0 **** 0.06
6493 H 202.88846689719583 152.5969072058221 125.8181422211494 H 0.0 **** 0.06
6494 H 201.28211076265706 153.33451243294468 125.603249747968 H 0.0 **** 0.06
6495 H 202.50786968778942 154.1478537138994 126.60661921922872 H 0.0 **** 0.06
6496 C 306.4830100109321 174.97316758075675 69.31376090411516 C 0.0 **** -0.24
6497 H 307.1093740518677 175.62849171043132 68.70991016457546 H 0.0 **** 0.06
6498 H 307.02656195632153 174.6746379860216 70.21013064558568 H 0.0 **** 0.06
6499 H 306.22130090832246 174.08689982070746 68.7360021728606 H 0.0 **** 0.06
6500 H 305.5737817000082 175.50167969201186 69.5988190966059 H 0.0 **** 0.06
6501 C 152.9631177459974 89.95877351774632 221.24936920474852 C 0.0 **** -0.24
6502 H 153.72176059733647 90.01365487958807 220.46907669097828 H 0.0 **** 0.06
6503 H 152.3289584693394 90.8443185255561 221.2029536608676 H 0.0 **** 0.06
6504 H 153.44863866898208 89.91118687214313 222.22443191930955 H 0.0 **** 0.06
6505 H 152.35493993850855 89.06641350928768 221.1025743885258 H 0.0 **** 0.06
6506 C 266.0187365957571 43.28880730370989 278.5927476295724 C 0.0 **** -0.24
6507 H 266.75768474423705 43.083660005214114 277.8177324214876 H 0.0 **** 0.06
6508 H 265.09770846655965 43.64501184563207 278.12946168421706 H 0.0 **** 0.06
6509 H 266.40385645737337 44.050330370543634 279.26966982111776 H 0.0 **** 0.06
6510 H 265.815300356024 42.37497065024817 279.1506245114457 H 0.0 **** 0.06
6511 C 68.78681635588353 309.37403302399207 248.84675225189358 C 0.0 **** -0.24
6512 H 68.50010923769608 308.7510459992055 247.9987802293723 H 0.0 **** 0.06
6513 H 67.89440816125457 309.6685561354767 249.39853400099025 H 0.0 **** 0.06
6514 H 69.30230401147779 310.2635099283112 248.48573471820987 H 0.0 **** 0.06
6515 H 69.45014045611032 308.8100633859577 249.5024882773949 H 0.0 **** 0.06
6516 C 158.4779079711427 207.7499830295518 309.1966080749479 C 0.0 **** -0.24
6517 H 158.49742507904517 207.91834339772834 310.2729659221019 H 0.0 **** 0.06
6518 H 159.49126703566452 207.5551626142166 308.8419141596139 H 0.0 **** 0.06
6519 H 158.08186844464 208.6333884823497 308.69750203260156 H 0.0 **** 0.06
6520 H 157.84371790741022 206.891661374284 308.97436890196707 H 0.0 **** 0.06
6521 C 181.36386417484403 209.26481235770865 8.97552713044891 C 0.0 **** -0.24
6522 H 181.57880023386315 209.79922747519163 9.900330524678424 H 0.0 **** 0.06
6523 H 180.29953452128507 209.03385202206016 8.929722518614383 H 0.0 **** 0.06
6524 H 181.9378689252261 208.33846262939835 8.949952180872359 H 0.0 **** 0.06
6525 H 181.63843862591204 209.88661428476837 8.12413851247645 H 0.0 **** 0.06
6526 C 45.50154498145315 6.9524890759089 44.40919328011 C 0.0 **** -0.24
6527 H 45.11380064417608 7.431179214601073 45.30903350755179 H 0.0 **** 0.06
6528 H 46.47669768386942 6.514211550349742 44.62332494736884 H 0.0 **** 0.06
6529 H 45.602357722064085 7.6956568143590545 43.618269229749956 H 0.0 **** 0.06
6530 H 44.81301994104342 6.170307598828174 44.089299929054334 H 0.0 **** 0.06
6531 C 102.39675126979174 190.17889880478077 36.791287100907425 C 0.0 **** -0.24
6532 H 102.59575050377921 190.9706337859791 36.0688534530895 H 0.0 **** 0.06
6533 H 101.72314320783434 189.44433973370042 36.34819060248793 H 0.0 **** 0.06
6534 H 101.93325308325757 190.6075821153688 37.68006570222366 H 0.0 **** 0.06
6535 H 103.33324661781617 189.69519758610807 37.066103288519116 H 0.0 **** 0.06
6536 C 191.71466774351575 245.51499562796164 156.5351918220457 C 0.0 **** -0.24
6537 H 191.39685300382223 246.16342721447808 155.7171645424263 H 0.0 **** 0.06
6538 H 191.94081209118195 246.12147558048923 157.41202142335504 H 0.0 **** 0.06
6539 H 192.60472050053875 244.9619920089503 156.2346515784041 H 0.0 **** 0.06
6540 H 190.91486220711465 244.81459203257018 156.7738133913914 H 0.0 **** 0.06
6541 C 296.5612482411921 87.03295392588362 14.294088834321215 C 0.0 **** -0.24
6542 H 295.6373768854869 86.95018523185547 13.721108543205318 H 0.0 **** 0.06
6543 H 297.191218005684 87.80711349199291 13.856282472017014 H 0.0 **** 0.06
6544 H 297.08885073462795 86.07883730060576 14.271562644701447 H 0.0 **** 0.06
6545 H 296.3263484322321 87.2951116152559 15.32560169162754 H 0.0 **** 0.06
6546 C 149.16162581465824 204.56380820324284 147.64934595084475 C 0.0 **** -0.24
6547 H 148.32722303902275 203.87845003456442 147.79922770409158 H 0.0 **** 0.06
6548 H 149.44535971425915 204.5651950218916 146.59692992055065 H 0.0 **** 0.06
6549 H 150.0091327068617 204.24121314723527 148.25471761407005 H 0.0 **** 0.06
6550 H 148.86325948157094 205.56923204907264 147.94767425162493 H 0.0 **** 0.06
6551 C 196.13834539248495 276.2985632523299 35.3972527610735 C 0.0 **** -0.24
6552 H 196.4761371732572 277.2037085321248 34.893960521009575 H 0.0 **** 0.06
6553 H 196.20693786188923 275.4533211326767 34.71160110939684 H 0.0 **** 0.06
6554 H 195.10346813919227 276.425021351658 35.71495823593736 H 0.0 **** 0.06
6555 H 196.76547111009666 276.11048968550585 36.26893677461544 H 0.0 **** 0.06
6556 C 51.5401353448986 240.36896459067162 152.4810834278279 C 0.0 **** -0.24
6557 H 51.99121699987211 239.41920371012662 152.77118507790033 H 0.0 **** 0.06
6558 H 52.325133471607955 241.10581578595432 152.30798342301676 H 0.0 **** 0.06
6559 H 50.88266855309939 240.71718383040113 153.2776712312525 H 0.0 **** 0.06
6560 H 50.96252370115411 240.231247704251 151.5663975783035 H 0.0 **** 0.06
6561 C 183.4943078148853 21.880461217353115 40.68961302328108 C 0.0 **** -0.24
6562 H 182.40561686383205 21.93876653770397 40.71007901935792 H 0.0 **** 0.06
6563 H 183.91407220096045 22.76987299546761 41.15816920263674 H 0.0 **** 0.06
6564 H 183.83367700857184 21.820079823346987 39.655651715187616 H 0.0 **** 0.06
6565 H 183.82070450406326 20.9935133354478 41.231933041818166 H 0.0 **** 0.06
6566 C 97.36911708105058 96.6078213549246 54.803554580158846 C 0.0 **** -0.24
6567 H 96.94375882138499 97.43003018433367 54.227108271407786 H 0.0 **** 0.06
6568 H 97.55933633740881 96.94018448476126 55.82385489496363 H 0.0 **** 0.06
6569 H 98.30521388753891 96.28947708120413 54.345286056160916 H 0.0 **** 0.06
6570 H 96.66799835830321 95.77320438009977 54.81735287619398 H 0.0 **** 0.06
6571 C 230.25987053454355 20.706120161745176 130.60778847870958 C 0.0 **** -0.24
6572 H 230.67686624944608 21.632819221012653 131.00322972772852 H 0.0 **** 0.06
6573 H 231.06751204728343 20.00307811841421 130.40282647193567 H 0.0 **** 0.06
6574 H 229.71654729298234 20.916101610905912 129.6872549433624 H 0.0 **** 0.06
6575 H 229.57979294883933 20.27414440310949 131.3414074313861 H 0.0 **** 0.06
6576 C 77.60612040600915 58.89133689680057 164.14784245593944 C 0.0 **** -0.24
6577 H 77.29336957727094 58.69609525655329 163.12248546088006 H 0.0 **** 0.06
6578 H 78.65528716196269 58.62037035085797 164.26424089841936 H 0.0 **** 0.06
6579 H 76.99892501316751 58.29778546183559 164.83109775058819 H 0.0 **** 0.06
6580 H 77.47582895323217 59.94999452302193 164.37163815837755 H 0.0 **** 0.06
6581 C 192.4787385739653 106.69709932115177 257.1457512062597 C 0.0 **** -0.24
6582 H 191.76454479198765 106.38823087092536 257.90912979693854 H 0.0 **** 0.06
6583 H 191.9642073067905 107.28007567518 256.38150811780787 H 0.0 **** 0.06
6584 H 192.92846779489264 105.8148369565017 256.69106989539824 H 0.0 **** 0.06
6585 H 193.25901248094448 107.30644495557405 257.60373579752945 H 0.0 **** 0.06
6586 C 147.95529805515358 300.4571415946784 152.04355793983302 C 0.0 **** -0.24
6587 H 148.57477160115383 300.80906960870914 152.86812724925687 H 0.0 **** 0.06
6588 H 148.35439002091823 299.51453438463795 151.6662508903716 H 0.0 **** 0.06
6589 H 147.95723957141018 301.1985268519415 151.24459205800957 H 0.0 **** 0.06
6590 H 146.9343481423815 300.3050929860997 152.3952237624428 H 0.0 **** 0.06
6591 C 256.0533852285041 148.9866812953274 16.081106196673247 C 0.0 **** -0.24
6592 H 255.26517418351926 149.7283852511065 16.213521997230742 H 0.0 **** 0.06
6593 H 256.97885112423313 149.48768054676896 15.795759075649428 H 0.0 **** 0.06
6594 H 255.76445640252868 148.2856292365584 15.298461007850293 H 0.0 **** 0.06
6595 H 256.205651477004 148.446681069489 17.015295734652426 H 0.0 **** 0.06
6596 C 206.93832405765704 71.7695358130388 213.220678233692 C 0.0 **** -0.24
6597 H 207.3922470653237 70.78829794055974 213.0833083350508 H 0.0 **** 0.06
6598 H 207.5746445252126 72.53051550411897 212.76890669604833 H 0.0 **** 0.06
6599 H 206.82938778620246 71.97165699485802 214.28684438985272 H 0.0 **** 0.06
6600 H 205.95705394624844 71.7855765468858 212.74579928516033 H 0.0 **** 0.06
6601 C 37.631296447084765 63.899443613004934 35.51082182443278 C 0.0 **** -0.24
6602 H 37.600534298208856 64.71813647628133 34.79216332846232 H 0.0 **** 0.06
6603 H 37.081066465678504 64.18354877389064 36.40802947967637 H 0.0 **** 0.06
6604 H 38.66784138617672 63.68460215792129 35.77210345740693 H 0.0 **** 0.06
6605 H 37.17609848001675 63.01285482350093 35.0709338012519 H 0.0 **** 0.06
6606 C 277.28537228783944 117.66384041905914 57.455970147996226 C 0.0 **** -0.24
6607 H 277.9193854916085 118.27208103321894 56.811202003109145 H 0.0 **** 0.06
6608 H 276.3323284131892 118.16938153795405 57.61114069713 H 0.0 **** 0.06
6609 H 277.7798996852281 117.51796187029666 58.41644318420421 H 0.0 **** 0.06
6610 H 277.11191951300293 116.6957647979504 56.98598496010473 H 0.0 **** 0.06
6611 C 278.9439169652131 214.12978798851015 83.14576626032746 C 0.0 **** -0.24
6612 H 279.8237642741632 214.76683300316404 83.05294000162661 H 0.0 **** 0.06
6613 H 278.06190784276316 214.75017281551072 83.30702979473708 H 0.0 **** 0.06
6614 H 279.07228677843636 213.45403744102182 83.9906252622732 H 0.0 **** 0.06
6615 H 278.81763985668346 213.54947916566726 82.2321278696347 H 0.0 **** 0.06
6616 C 95.22300557885882 227.12030819738575 215.04827162725775 C 0.0 **** -0.24
6617 H 95.26151769320134 228.20956488200204 215.04510280607929 H 0.0 **** 0.06
6618 H 94.70386463185895 226.7777588582793 215.94337105030115 H 0.0 **** 0.06
6619 H 96.23723497984523 226.72110814271383 215.04024738937377 H 0.0 **** 0.06
6620 H 94.68849488850998 226.77391727122415 214.16340327506106 H 0.0 **** 0.06
6621 C 33.9529203075696 117.76333325547591 141.862272798302 C 0.0 **** -0.24
6622 H 34.48977359037414 117.58908384244876 142.79556752749883 H 0.0 **** 0.06
6623 H 34.58315610424657 117.4737929089375 141.02176427634873 H 0.0 **** 0.06
6624 H 33.70153486019208 118.82102049909864 141.78148664286047 H 0.0 **** 0.06
6625 H 33.03862940678968 117.17072348141713 141.85348927509563 H 0.0 **** 0.06
6626 C 279.57214116657053 92.83684002002354 285.0571713772821 C 0.0 **** -0.24
6627 H 280.27854176130563 92.31760390897142 285.7051894423298 H 0.0 **** 0.06
6628 H 279.25898129710026 92.16990549264165 284.25317225563623 H 0.0 **** 0.06
6629 H 280.0497962644503 93.7194243411833 284.6323915861499 H 0.0 **** 0.06
6630 H 278.70142533097123 93.13950680395999 285.63828160650473 H 0.0 **** 0.06
6631 C 46.34018729521679 273.0939365775182 226.61810737676996 C 0.0 **** -0.24
6632 H 47.28401289810327 273.2995738862532 227.12140537088283 H 0.0 **** 0.06
6633 H 46.474668403836574 272.27144361942686 225.91457733355668 H 0.0 **** 0.06
6634 H 46.0142350273249 273.98399092193335 226.08016153214766 H 0.0 **** 0.06
6635 H 45.58735335608375 272.82009250498834 227.35687989345746 H 0.0 **** 0.06
6636 C 242.0664004947111 74.17366975725108 201.349847972274 C 0.0 **** -0.24
6637 H 240.9897428625032 74.03420921891876 201.43903005795755 H 0.0 **** 0.06
6638 H 242.529102242972 74.06548258482667 202.3314323971897 H 0.0 **** 0.06
6639 H 242.2732968591898 75.16874567055766 200.95756724945204 H 0.0 **** 0.06
6640 H 242.47437242742976 73.42447145189485 200.67117710038826 H 0.0 **** 0.06
6641 C 23.822214978864764 225.94390522576282 216.0209267849832 C 0.0 **** -0.24
6642 H 23.312337957692648 225.01742090187082 215.7547284082255 H 0.0 **** 0.06
6643 H 23.47192413820315 226.7496625248502 215.37573700485729 H 0.0 **** 0.06
6644 H 24.89733481467411 225.8161543485532 215.89437480955644 H 0.0 **** 0.06
6645 H 23.606097409015774 226.19027456870168 217.06065448698791 H 0.0 **** 0.06
6646 C 288.0177713164895 37.59348243945368 278.32671454243757 C 0.0 **** -0.24
6647 H 288.926694709651 38.09060573913098 278.6644689455782 H 0.0 **** 0.06
6648 H 287.6559649872262 36.92662123077082 279.1090691017817 H 0.0 **** 0.06
6649 H 288.23331797172455 37.01475570144291 277.42742017398325 H 0.0 **** 0.06
6650 H 287.2568697789847 38.340719736473346 278.1038051051144 H 0.0 **** 0.06
6651 C 251.26666083366032 160.5307916027457 42.127134374382535 C 0.0 **** -0.24
6652 H 252.16264404406678 160.1296026000441 42.6005092992159 H 0.0 **** 0.06
6653 H 250.96196391903374 161.443348836023 42.64097330151435 H 0.0 **** 0.06
6654 H 250.46439112370362 159.79508213458524 42.18660068763904 H 0.0 **** 0.06
6655 H 251.47693975019845 160.75530430546615 41.08114289434798 H 0.0 **** 0.06
6656 C 129.25386848614892 104.04063123260869 160.79878931765728 C 0.0 **** -0.24
6657 H 129.21939512745854 105.07781596966197 161.1322346037436 H 0.0 **** 0.06
6658 H 128.79158355472924 103.40200668656445 161.55179242746772 H 0.0 **** 0.06
6659 H 130.29120456788672 103.74038646314821 160.65428576289742 H 0.0 **** 0.06
6660 H 128.712943897417 103.94451662970357 159.85703461221493 H 0.0 **** 0.06
6661 C 233.74261109924015 272.4551569272943 154.03385216945634 C 0.0 **** -0.24
6662 H 232.82954535954406 272.94369759854254 154.37333459205058 H 0.0 **** 0.06
6663 H 233.49057496291982 271.6776040096287 153.3126451278755 H 0.0 **** 0.06
6664 H 234.25426926986958 272.00791053686277 154.88666160722101 H 0.0 **** 0.06
6665 H 234.3952798647975 273.1904647413752 153.5634712067221 H 0.0 **** 0.06
6666 C 226.1993549201522 192.11986964198223 202.76415462764334 C 0.0 **** -0.24
6667 H 225.75334988437612 192.20130241029528 201.7736983917186 H 0.0 **** 0.06
6668 H 226.0200462921859 193.04019102073664 203.31978609240787 H 0.0 **** 0.06
6669 H 227.2727849161028 191.95622220477975 202.66652823721864 H 0.0 **** 0.06
6670 H 225.75043383077596 191.28055747823697 203.29565749583935 H 0.0 **** 0.06
6671 C 65.21292288658194 38.03905718211686 246.9338130217412 C 0.0 **** -0.24
6672 H 65.69173658579766 39.01825198698944 246.94164409401645 H 0.0 **** 0.06
6673 H 65.81011673027757 37.338145891537266 247.51640483618303 H 0.0 **** 0.06
6674 H 65.13387673190985 37.68259772759822 245.90673137302286 H 0.0 **** 0.06
6675 H 64.21684855188846 38.11922961214751 247.36936399699243 H 0.0 **** 0.06
6676 C 87.24266963106908 42.492855823779365 61.198441961675655 C 0.0 **** -0.24
6677 H 87.39972555070344 43.19487301621612 62.016959919150025 H 0.0 **** 0.06
6678 H 88.17341246046948 42.36423064284887 60.64612620299502 H 0.0 **** 0.06
6679 H 86.47357165776904 42.880842868846486 60.5308989231591 H 0.0 **** 0.06
6680 H 86.92256500473331 41.53196833172899 61.600670259182664 H 0.0 **** 0.06
6681 C 49.400412063779214 28.153931426462123 183.03694725058455 C 0.0 **** -0.24
6682 H 48.98999810894611 28.63605069886148 183.9239200464105 H 0.0 **** 0.06
6683 H 50.38126422351448 27.737977190340757 183.26950362858747 H 0.0 **** 0.06
6684 H 49.49683781092932 28.88879033426872 182.2370873782956 H 0.0 **** 0.06
6685 H 48.73268907314244 27.354634556810538 182.71614689240232 H 0.0 **** 0.06
6686 C 22.208521547617124 235.73689536418283 107.00763792535545 C 0.0 **** -0.24
6687 H 21.412902681935833 235.37901944917797 106.35447424128103 H 0.0 **** 0.06
6688 H 23.07870813735684 236.00261833451998 106.40693254447734 H 0.0 **** 0.06
6689 H 22.479632786023046 234.95185121106155 107.71305675193261 H 0.0 **** 0.06
6690 H 21.862610468019312 236.6139580742556 107.55512480186692 H 0.0 **** 0.06
6691 C 73.35506259598256 201.6492384816138 153.7336609530679 C 0.0 **** -0.24
6692 H 73.65953134180927 202.09592228880337 152.7876547665732 H 0.0 **** 0.06
6693 H 72.3366958151785 201.27024114586874 153.64652617186897 H 0.0 **** 0.06
6694 H 73.39615290609066 202.40307016571597 154.52110284744123 H 0.0 **** 0.06
6695 H 74.02875643972288 200.82887622238331 153.98198276114016 H 0.0 **** 0.06
6696 C 48.58173323599752 231.97826851466493 287.65893385231425 C 0.0 **** -0.24
6697 H 48.704759837630235 232.91838459141977 287.12012073746666 H 0.0 **** 0.06
6698 H 49.49672308687394 231.75289876572657 288.20705737899976 H 0.0 **** 0.06
6699 H 48.37520567179567 231.1773330156137 286.9495284404405 H 0.0 **** 0.06
6700 H 47.751359537828705 232.0674931290536 288.35976538839645 H 0.0 **** 0.06
6701 C 66.23932893993282 24.096116533642345 235.40088424263135 C 0.0 **** -0.24
6702 H 66.48595768658632 24.915542752431577 234.72621819166207 H 0.0 **** 0.06
6703 H 67.15684218866559 23.676533559409222 235.81343595571815 H 0.0 **** 0.06
6704 H 65.70118462951854 23.323281801312362 234.85193840913007 H 0.0 **** 0.06
6705 H 65.61288582678011 24.468916225450442 236.21106987839758 H 0.0 **** 0.06
6706 C 36.92374263832943 219.84954807264177 4.615114491587178 C 0.0 **** -0.24
6707 H 36.46914847612891 220.573795045784 3.938334006815907 H 0.0 **** 0.06
6708 H 37.13410748228705 220.32900326622814 5.571251877496152 H 0.0 **** 0.06
6709 H 37.853195180940304 219.4810398834012 4.179893812025455 H 0.0 **** 0.06
6710 H 36.238382534604966 219.01646589970562 4.768424528616919 H 0.0 **** 0.06
6711 C 155.22155403817447 282.09026035830595 258.3656751811622 C 0.0 **** -0.24
6712 H 155.19844961678092 283.14386596112803 258.0838227762277 H 0.0 **** 0.06
6713 H 155.20096665924245 281.4737894719373 257.46706394408625 H 0.0 **** 0.06
6714 H 154.35339904622123 281.86161861948466 258.98371418837456 H 0.0 **** 0.06
6715 H 156.13164293917168 281.88505980199704 258.92783553748205 H 0.0 **** 0.06
6716 C 234.07512539043137 222.64159320786243 78.15934150154305 C 0.0 **** -0.24
6717 H 233.50675077767795 221.76200499497241 77.85677047510814 H 0.0 **** 0.06
6718 H 233.73471283304295 223.50688061987097 77.58898955454265 H 0.0 **** 0.06
6719 H 235.13397755077187 222.4727033360009 77.96734239555605 H 0.0 **** 0.06
6720 H 233.9226166903717 222.82464493939705 79.22252892884381 H 0.0 **** 0.06
6721 C 137.21344260710003 77.48151102708104 39.061645623400494 C 0.0 **** -0.24
6722 H 137.82062869243958 76.72081423168683 38.57074869517376 H 0.0 **** 0.06
6723 H 136.31275202286162 77.02066406574886 39.46784249926739 H 0.0 **** 0.06
6724 H 136.93493797574436 78.24611368703182 38.33676198407545 H 0.0 **** 0.06
6725 H 137.78558067811045 77.93708121376312 39.869467497185724 H 0.0 **** 0.06
6726 C 277.9837930270626 152.72259915371478 24.228438707361647 C 0.0 **** -0.24
6727 H 277.03934275466275 152.5918705648446 24.75673130551013 H 0.0 **** 0.06
6728 H 277.85513997084547 152.44863770915174 23.180684502510985 H 0.0 **** 0.06
6729 H 278.74410480322354 152.08568736696583 24.68048044076363 H 0.0 **** 0.06
6730 H 278.2957447746171 153.76470441311972 24.295655402958005 H 0.0 **** 0.06
6731 C 148.75168733947615 226.72713180074106 311.41233086355123 C 0.0 **** -0.24
6732 H 147.91861774121432 227.12685860509478 311.99068445528474 H 0.0 **** 0.06
6733 H 148.72668495788815 227.14144496664338 310.40487176879986 H 0.0 **** 0.06
6734 H 148.67007206211036 225.6418249220441 311.36254863110645 H 0.0 **** 0.06
6735 H 149.69160127665947 226.99825123013676 311.8945241875631 H 0.0 **** 0.06
6736 C 276.77918914430654 305.206905240595 221.65034951595658 C 0.0 **** -0.24
6737 H 277.48348777375406 306.0220640842873 221.48750343751811 H 0.0 **** 0.06
6738 H 276.47503220974903 305.19380130979744 222.6972072896367 H 0.0 **** 0.06
6739 H 277.25645286833355 304.2589613113855 221.39889176298476 H 0.0 **** 0.06
6740 H 275.9031378913323 305.3510195813408 221.0179251257618 H 0.0 **** 0.06
6741 C 97.86439281962706 11.368678302570316 23.28285021827037 C 0.0 **** -0.24
6742 H 97.98053006536736 11.247809216989282 24.360097709008386 H 0.0 **** 0.06
6743 H 97.69878676007224 10.393539167792838 22.82330407573602 H 0.0 **** 0.06
6744 H 98.7669513156244 11.818028876523101 22.868045957046206 H 0.0 **** 0.06
6745 H 97.01038781535479 12.015260839370711 23.08034879342256 H 0.0 **** 0.06
6746 C 27.425797113392377 151.21716429666503 82.24847605862251 C 0.0 **** -0.24
6747 H 27.40180634331182 152.16913518835258 81.71839095887461 H 0.0 **** 0.06
6748 H 28.050189066345183 151.31180082504522 83.13689823674702 H 0.0 **** 0.06
6749 H 27.83696800540173 150.44778913268192 81.59560110835102 H 0.0 **** 0.06
6750 H 26.413162204405182 150.94070878665633 82.543530707262 H 0.0 **** 0.06
6751 C 291.45574558852013 63.96229240548408 150.88118968711245 C 0.0 **** -0.24
6752 H 292.3044532251588 64.02049454196046 151.56327414852075 H 0.0 **** 0.06
6753 H 291.81720815816175 63.96716656954786 149.85248496423958 H 0.0 **** 0.06
6754 H 290.80162031398163 64.81922774180191 151.0410186675703 H 0.0 **** 0.06
6755 H 290.90261917723717 63.042305268971575 151.0672869374352 H 0.0 **** 0.06
6756 C 292.6822725078084 181.59838896570676 20.625011517441266 C 0.0 **** -0.24
6757 H 292.8852543149894 181.11023031852204 19.671834791528866 H 0.0 **** 0.06
6758 H 292.12393358730986 180.91900051418764 21.268840167391772 H 0.0 **** 0.06
6759 H 292.09562725550245 182.50076787316885 20.452750072800953 H 0.0 **** 0.06
6760 H 293.6241243494292 181.86319651745532 21.105261887321035 H 0.0 **** 0.06
6761 C 180.2243442683286 49.922882259987375 311.9389268887684 C 0.0 **** -0.24
6762 H 179.35676757442843 49.71441597668425 311.3136246941608 H 0.0 **** 0.06
6763 H 179.9307518899081 50.575683048149756 312.76199250207844 H 0.0 **** 0.06
6764 H 180.99248437429344 50.41415702663201 311.34184294970026 H 0.0 **** 0.06
6765 H 180.61735006144568 48.98784427935976 312.3390678323409 H 0.0 **** 0.06
6766 C 132.9418341254221 110.61897649757512 1.6959685421249162 C 0.0 **** -0.24
6767 H 132.42355661797635 110.0058845987497 2.434614673752037 H 0.0 **** 0.06
6768 H 132.33172438915915 111.48961025532671 1.4551733593486347 H 0.0 **** 0.06
6769 H 133.11300705368208 110.03320450209429 0.7927596247691042 H 0.0 **** 0.06
6770 H 133.89812511328415 110.94642112480196 2.103205463470843 H 0.0 **** 0.06
6771 C 132.480608937102 100.70710746981473 66.37709318778309 C 0.0 **** -0.24
6772 H 131.79938286671813 100.36292866114553 67.15587579083237 H 0.0 **** 0.06
6773 H 131.9656059263893 101.41923505948768 65.73246651753021 H 0.0 **** 0.06
6774 H 132.81474067647005 99.85484505387217 65.78491998035949 H 0.0 **** 0.06
6775 H 133.34281528909074 101.19023653502009 66.83725170931982 H 0.0 **** 0.06
6776 C 269.3446396546516 22.051050632551778 197.8946286355935 C 0.0 **** -0.24
6777 H 269.5775465674524 21.01259068609164 198.13175025622604 H 0.0 **** 0.06
6778 H 269.1756310446373 22.149111066309388 196.82188514581236 H 0.0 **** 0.06
6779 H 270.1797678495045 22.686319350481824 198.19082773584643 H 0.0 **** 0.06
6780 H 268.44788429117125 22.353832070166106 198.43348349595135 H 0.0 **** 0.06
6781 C 150.49234638351874 233.60106299617553 139.75305720301452 C 0.0 **** -0.24
6782 H 150.14981663832958 232.62247084012262 140.08993420920942 H 0.0 **** 0.06
6783 H 150.89238543226202 234.15722482373405 140.6014056781243 H 0.0 **** 0.06
6784 H 149.6547183481561 234.1493607289104 139.32070523361577 H 0.0 **** 0.06
6785 H 151.27096416535892 233.47374164313234 139.00097943264103 H 0.0 **** 0.06
6786 C 184.36956466009462 50.39312977875329 153.26270354064417 C 0.0 **** -0.24
6787 H 185.40984375320028 50.6749231118832 153.09958923653198 H 0.0 **** 0.06
6788 H 184.1199074999165 50.51894365524055 154.3165851867729 H 0.0 **** 0.06
6789 H 184.22612622577435 49.35126770150123 152.97588621473136 H 0.0 **** 0.06
6790 H 183.7224392224765 51.02830757273435 152.65768355029445 H 0.0 **** 0.06
6791 C 287.1995925762584 58.034545716219554 167.67445094297773 C 0.0 **** -0.24
6792 H 287.91484434821444 57.998150772518784 168.49686243729633 H 0.0 **** 0.06
6793 H 287.52890923506345 57.366080705635795 166.8779313731199 H 0.0 **** 0.06
6794 H 287.1378352898769 59.05352624277111 167.2921970028953 H 0.0 **** 0.06
6795 H 286.2194694616336 57.719926369595385 168.03269066190705 H 0.0 **** 0.06
6796 C 90.68527128478027 222.45945873911933 225.06220951813862 C 0.0 **** -0.24
6797 H 90.66095299763367 223.4539076616183 225.5070041989294 H 0.0 **** 0.06
6798 H 90.66141721212006 221.70832949078064 225.85182283244416 H 0.0 **** 0.06
6799 H 91.59875351642302 222.34566772681467 224.47916049402525 H 0.0 **** 0.06
6800 H 89.82063244723778 222.331726515734 224.41237453823751 H 0.0 **** 0.06
6801 C 119.1948879049346 112.46151587448318 178.10718103549988 C 0.0 **** -0.24
6802 H 118.39241713324387 112.92246384394053 177.53043327058435 H 0.0 **** 0.06
6803 H 118.83154234283774 111.54006475277782 178.56190312830125 H 0.0 **** 0.06
6804 H 119.52047134163382 113.14865358598217 178.88867226684977 H 0.0 **** 0.06
6805 H 120.03334270539821 112.2370968683949 177.44867970502474 H 0.0 **** 0.06
6806 C 41.71195135518491 10.530008498967646 54.72051312994543 C 0.0 **** -0.24
6807 H 41.37321728445892 9.754214483960595 54.03332376098683 H 0.0 **** 0.06
6808 H 41.23746765028656 10.385820651427181 55.69184748754887 H 0.0 **** 0.06
6809 H 41.4411682896731 11.508568652504621 54.324685004434315 H 0.0 **** 0.06
6810 H 42.79419960172004 10.469001003266172 54.83203068553749 H 0.0 **** 0.06
6811 C 74.51677650926513 74.76758833130552 110.91600108803823 C 0.0 **** -0.24
6812 H 75.47974300482383 74.46575770322204 110.50528202859101 H 0.0 **** 0.06
6813 H 74.02125936558383 73.90026192629608 111.35394289251721 H 0.0 **** 0.06
6814 H 73.89496739280514 75.17860971988787 110.12071925713926 H 0.0 **** 0.06
6815 H 74.67111383818244 75.52401663724729 111.68510157184298 H 0.0 **** 0.06
6816 C 238.55968250856114 257.7016688688392 153.86068040759977 C 0.0 **** -0.24
6817 H 239.37125647431296 258.2366100111928 153.36820805420882 H 0.0 **** 0.06
6818 H 238.25104791651142 256.8596012140317 153.24083921405696 H 0.0 **** 0.06
6819 H 237.7154315831774 258.3757115692052 154.0045176822258 H 0.0 **** 0.06
6820 H 238.90099406024282 257.33475268092695 154.82915667990733 H 0.0 **** 0.06
6821 C 209.89827572388833 204.46818025153755 241.6990464913655 C 0.0 **** -0.24
6822 H 210.68940722453328 204.8691797351525 241.0646351756055 H 0.0 **** 0.06
6823 H 210.22465056827133 203.52279302080098 242.1325655744154 H 0.0 **** 0.06
6824 H 209.00215965731556 204.30324039222648 241.0999561871153 H 0.0 **** 0.06
6825 H 209.6760395247099 205.17775405803405 242.49583155225997 H 0.0 **** 0.06
6826 C 203.66581048510665 125.19840330805229 127.29460851443824 C 0.0 **** -0.24
6827 H 203.41176017174382 124.65752487213419 128.20636851965267 H 0.0 **** 0.06
6828 H 203.36536396102184 126.24193214673969 127.39664187084313 H 0.0 **** 0.06
6829 H 203.14298993589233 124.75056379480253 126.44870911161942 H 0.0 **** 0.06
6830 H 204.74108735519718 125.14330247903902 127.1275818789492 H 0.0 **** 0.06
6831 C 147.87174783026865 32.314091804475595 214.00010199725884 C 0.0 **** -0.24
6832 H 148.1238855816244 32.02107724606836 215.01909187520323 H 0.0 **** 0.06
6833 H 148.743581155677 32.766797090607696 213.52636163303617 H 0.0 **** 0.06
6834 H 147.05375847957387 33.03483315028302 214.02116591567977 H 0.0 **** 0.06
6835 H 147.56559505705943 31.43448201745076 213.4343313286729 H 0.0 **** 0.06
6836 C 269.94772787136594 48.38061503066035 216.27053703705087 C 0.0 **** -0.24
6837 H 270.1762727434343 48.95615092078549 217.16745956985886 H 0.0 **** 0.06
6838 H 270.7076798699797 47.611918087189224 216.12906859413323 H 0.0 **** 0.06
6839 H 269.9368485922172 49.044867213611724 215.40617771922655 H 0.0 **** 0.06
6840 H 268.97027978204534 47.91050854269827 216.37948414979417 H 0.0 **** 0.06
6841 C 292.1220097576082 177.94626006014374 288.23909870160935 C 0.0 **** -0.24
6842 H 291.1981348466432 178.48345690701314 288.45321559948036 H 0.0 **** 0.06
6843 H 292.22755926905717 177.82153688147616 287.1610598420556 H 0.0 **** 0.06
6844 H 292.0936457310668 176.96796618446274 288.71747190157896 H 0.0 **** 0.06
6845 H 292.9688831520887 178.51404045697075 288.62319012315703 H 0.0 **** 0.06
6846 C 31.77460801937167 179.34579572118008 120.20145387939593 C 0.0 **** -0.24
6847 H 31.030646140382515 178.63960223021513 120.57021915189813 H 0.0 **** 0.06
6848 H 32.248957869537776 178.93900819490045 119.30778980233393 H 0.0 **** 0.06
6849 H 32.528799406448854 179.51243299446503 120.9706695328284 H 0.0 **** 0.06
6850 H 31.288998223086224 180.29017575814152 119.95742351752631 H 0.0 **** 0.06
6851 C 191.88629666947446 280.0347445057083 3.4008539115727103 C 0.0 **** -0.24
6852 H 191.91013020314313 280.76556541178496 4.209476887883966 H 0.0 **** 0.06
6853 H 190.97131824088558 279.44725629902086 3.4697191968335233 H 0.0 **** 0.06
6854 H 192.74990612482242 279.37487643905433 3.4825863555383876 H 0.0 **** 0.06
6855 H 191.91584655420223 280.55313199548175 2.4423485304031374 H 0.0 **** 0.06
6856 C 206.44495904836162 73.168700373408 104.88141400468459 C 0.0 **** -0.24
6857 H 206.53472392430518 72.58427787724463 103.96526774632923 H 0.0 **** 0.06
6858 H 207.07665433402389 72.73171770543985 105.6545922263999 H 0.0 **** 0.06
6859 H 205.40657258769716 73.16500440845664 105.21437083773702 H 0.0 **** 0.06
6860 H 206.76032487053027 74.19447755018109 104.6889537892624 H 0.0 **** 0.06
6861 C 241.50846721015208 131.4959350232098 202.57132240564601 C 0.0 **** -0.24
6862 H 240.79573401997717 130.6800452413718 202.69550621251153 H 0.0 **** 0.06
6863 H 241.65990145543014 131.99293426121767 203.52966826070622 H 0.0 **** 0.06
6864 H 241.11965876098532 132.2107282689878 201.8472105716732 H 0.0 **** 0.06
6865 H 242.4579344298383 131.09691666011707 202.21487508408455 H 0.0 **** 0.06
6866 C 22.837149160761328 40.35381084736031 168.3989578127247 C 0.0 **** -0.24
6867 H 22.449146250317426 39.6958333194911 167.62095417053848 H 0.0 **** 0.06
6868 H 22.3769850084567 40.096389244310785 169.3541004361682 H 0.0 **** 0.06
6869 H 22.60455155174685 41.38880134943207 168.14995106727167 H 0.0 **** 0.06
6870 H 23.917972892611488 40.231435662561694 168.47194223891904 H 0.0 **** 0.06
6871 C 90.90202018227194 28.22565996373251 311.92066514851774 C 0.0 **** -0.24
6872 H 90.51413294463097 28.913577581133666 312.6715227845962 H 0.0 **** 0.06
6873 H 90.07031058497515 27.771665521648117 311.3806526038494 H 0.0 **** 0.06
6874 H 91.48755455304462 27.447004243202656 312.4089141802107 H 0.0 **** 0.06
6875 H 91.5345111768257 28.772048923225896 311.220684006807 H 0.0 **** 0.06
6876 C 274.0362238499439 125.04492274237225 192.61469718219627 C 0.0 **** -0.24
6877 H 274.2603188759025 125.63918438999116 193.50003658567294 H 0.0 **** 0.06
6878 H 274.9412585674987 124.92488557076715 192.0197941781188 H 0.0 **** 0.06
6879 H 273.27467165649466 125.54973483491543 192.0214465170502 H 0.0 **** 0.06
6880 H 273.66850851680937 124.06453160836776 192.9185820467393 H 0.0 **** 0.06
6881 C 73.1280987104254 154.52031328305452 194.57711819554538 C 0.0 **** -0.24
6882 H 73.77790663197794 155.39453135119913 194.58167640468344 H 0.0 **** 0.06
6883 H 73.43345966441521 153.84423758488464 193.77874316689633 H 0.0 **** 0.06
6884 H 72.09707083309169 154.83573968994028 194.41166712732797 H 0.0 **** 0.06
6885 H 73.20129994501659 154.00767364025057 195.53611586218193 H 0.0 **** 0.06
6886 C 13.123842460454796 172.39717531263994 224.2324903534049 C 0.0 **** -0.24
6887 H 14.035163958375847 172.988076761424 224.32150132410737 H 0.0 **** 0.06
6888 H 13.3358961331204 171.35991520667102 224.49179145725998 H 0.0 **** 0.06
6889 H 12.757091812539045 172.44840053119435 223.2064473244594 H 0.0 **** 0.06
6890 H 12.36635550768841 172.7936863051495 224.9079064437226 H 0.0 **** 0.06
6891 C 85.0282165722501 131.32306334095674 60.11300374553045 C 0.0 **** -0.24
6892 H 84.50602647039025 131.82180741586168 60.92948779012758 H 0.0 **** 0.06
6893 H 85.97582775616354 130.92673957843675 60.47700905701626 H 0.0 **** 0.06
6894 H 85.21741233728403 132.038897714479 59.312678521034826 H 0.0 **** 0.06
6895 H 84.41341132896116 130.50724139681546 59.73262443636693 H 0.0 **** 0.06
6896 C 234.5012745582914 227.7886824750622 38.58759125918158 C 0.0 **** -0.24
6897 H 233.42545611706734 227.825668331725 38.41568116992386 H 0.0 **** 0.06
6898 H 234.93727369036577 226.9865874705755 37.99331379548147 H 0.0 **** 0.06
6899 H 234.69266111648275 227.60347053911235 39.64451797079599 H 0.0 **** 0.06
6900 H 234.94725040421963 228.74072837826355 38.29908563553846 H 0.0 **** 0.06
6901 C 289.59806420292864 290.5554199079507 305.2341526756917 C 0.0 **** -0.24
6902 H 289.82829372305883 291.543829547872 305.63071174787564 H 0.0 **** 0.06
6903 H 290.4783868922155 289.9178100958808 305.31385235672593 H 0.0 **** 0.06
6904 H 289.30599835263706 290.64393918907444 304.18727482686836 H 0.0 **** 0.06
6905 H 288.77823750827474 290.1175079973451 305.80328069100466 H 0.0 **** 0.06
6906 C 95.20235905194508 200.78048261360652 58.629495781780776 C 0.0 **** -0.24
6907 H 96.24704565284091 200.47019477495007 58.59600375228965 H 0.0 **** 0.06
6908 H 94.64232235246246 200.2521369809678 57.85701850445173 H 0.0 **** 0.06
6909 H 95.1360475641236 201.85459652714633 58.456367398161575 H 0.0 **** 0.06
6910 H 94.78540492111134 200.543183299781 59.607712850601615 H 0.0 **** 0.06
6911 C 70.23815617354222 87.82082492662326 247.06659711877603 C 0.0 **** -0.24
6912 H 70.08398389899162 88.23456278162104 248.06373163933978 H 0.0 **** 0.06
6913 H 71.30588919378803 87.69690389869933 246.88616395762205 H 0.0 **** 0.06
6914 H 69.81913917852461 88.4994618478558 246.32407908259182 H 0.0 **** 0.06
6915 H 69.74167913347088 86.85316105623633 246.99499033092283 H 0.0 **** 0.06
6916 C 3.808856244062838 101.10826106778242 277.4787165642663 C 0.0 **** -0.24
6917 H 3.423801861223623 101.47974245595543 276.5286844312843 H 0.0 **** 0.06
6918 H 4.862888122563788 100.85384835420345 277.3687651256896 H 0.0 **** 0.06
6919 H 3.249954002084749 100.2205528558265 277.7742038948128 H 0.0 **** 0.06
6920 H 3.6981532164635382 101.87805640117091 278.24226769757684 H 0.0 **** 0.06
6921 C 8.85812171390944 205.53937246310227 265.4683901757385 C 0.0 **** -0.24
6922 H 8.459090293554937 205.86658142248456 266.42823108447664 H 0.0 **** 0.06
6923 H 9.795794185903276 206.05811099495645 265.2686603049966 H 0.0 **** 0.06
6924 H 8.13970459184344 205.76869480376018 264.68010630444013 H 0.0 **** 0.06
6925 H 9.035123226934957 204.46365863999614 265.4955119412221 H 0.0 **** 0.06
6926 C 169.4063430072806 235.6463816768727 29.756687419965544 C 0.0 **** -0.24
6927 H 170.43673780395784 235.8330811336781 29.451295485643072 H 0.0 **** 0.06
6928 H 168.75342381950082 236.39408737051488 29.306667332760725 H 0.0 **** 0.06
6929 H 169.3338209435227 235.7055754526658 30.8427864017998 H 0.0 **** 0.06
6930 H 169.1040115613273 234.6530222941816 29.424967381360517 H 0.0 **** 0.06
6931 C 88.92434098069486 162.6848701408669 102.80119688770685 C 0.0 **** -0.24
6932 H 89.09618719626806 162.4951601555536 101.7410849335896 H 0.0 **** 0.06
6933 H 87.85456916742393 162.64224951968782 103.00881939533667 H 0.0 **** 0.06
6934 H 89.30671868086915 163.67198359612627 103.0601692199358 H 0.0 **** 0.06
6935 H 89.44003527878755 161.92871340360574 103.39269137389863 H 0.0 **** 0.06
6936 C 276.9718917847723 209.6285678009416 216.5057509370294 C 0.0 **** -0.24
6937 H 277.6653672660181 209.07339677241714 215.87419869422305 H 0.0 **** 0.06
6938 H 277.1472030774893 209.36931736764922 217.55031090069497 H 0.0 **** 0.06
6939 H 275.9484375202693 209.3708256175886 216.23404947665233 H 0.0 **** 0.06
6940 H 277.12839614433113 210.69763126413054 216.36456650606647 H 0.0 **** 0.06
6941 C 39.30825550417225 126.99467561987404 60.3275975176777 C 0.0 **** -0.24
6942 H 39.65958372290265 126.26841377286726 59.59539293060254 H 0.0 **** 0.06
6943 H 38.334293151767014 126.6846122376661 60.708456274535536 H 0.0 **** 0.06
6944 H 39.21832838130379 127.9731377953807 59.85474210852868 H 0.0 **** 0.06
6945 H 40.01870905146782 127.0532631922911 61.15197946919841 H 0.0 **** 0.06
6946 C 73.79382697873194 47.65278901626658 217.755195022607 C 0.0 **** -0.24
6947 H 73.21142214282182 47.48998489988517 218.66198870154764 H 0.0 **** 0.06
6948 H 73.34641166800176 47.09774689899737 216.93139156769325 H 0.0 **** 0.06
6949 H 74.81561488464808 47.30812036401264 217.9134680288169 H 0.0 **** 0.06
6950 H 73.80197597393837 48.716817211539194 217.51585436620894 H 0.0 **** 0.06
6951 C 96.38552876397443 177.45250401652754 314.23675584047055 C 0.0 **** -0.24
6952 H 96.57922181634859 178.13796148181262 315.0626786098984 H 0.0 **** 0.06
6953 H 95.41495100286636 176.978231647938 314.3797763874541 H 0.0 **** 0.06
6954 H 97.16366977445 176.68949689245892 314.20904216245754 H 0.0 **** 0.06
6955 H 96.38561346252675 178.00677213156695 313.29801988135824 H 0.0 **** 0.06
6956 C 135.61791071910207 198.90885491895637 8.848932169182518 C 0.0 **** -0.24
6957 H 136.33112045899017 199.40035018913642 8.186567752767587 H 0.0 **** 0.06
6958 H 134.8987749668781 199.64214428454898 9.215836560494353 H 0.0 **** 0.06
6959 H 136.14965820721184 198.46816280577184 9.692276357886684 H 0.0 **** 0.06
6960 H 135.0931765092613 198.1269302239134 8.301392103738891 H 0.0 **** 0.06
6961 C 151.265685956183 89.7420862498177 86.87334328301873 C 0.0 **** -0.24
6962 H 150.5158760715579 89.2551005970227 86.25042638836268 H 0.0 **** 0.06
6963 H 151.63902439989613 89.0331731213696 87.61320674222043 H 0.0 **** 0.06
6964 H 150.8179998632246 90.59637663585974 87.38096169045562 H 0.0 **** 0.06
6965 H 152.09088291467447 90.08315840490638 86.24798329405252 H 0.0 **** 0.06
6966 C 31.539163236047187 204.17194953345864 276.8488590254743 C 0.0 **** -0.24
6967 H 31.15357957657349 204.52386921184205 277.80545932299714 H 0.0 **** 0.06
6968 H 31.288987762906288 203.11843257521855 276.7214871132902 H 0.0 **** 0.06
6969 H 32.62230902844158 204.29466399860428 276.82718634118044 H 0.0 **** 0.06
6970 H 31.09270394661297 204.75188588794782 276.04147666566524 H 0.0 **** 0.06
6971 C 202.0306382277427 266.60156216986104 88.248074699802 C 0.0 **** -0.24
6972 H 202.7120530534794 266.982158210973 89.00933079425704 H 0.0 **** 0.06
6973 H 201.34064382317808 267.3909436663057 87.95026448540577 H 0.0 **** 0.06
6974 H 201.46823695617041 265.7602443680943 88.65314076416294 H 0.0 **** 0.06
6975 H 202.60296016590712 266.27278508913895 87.37999602525431 H 0.0 **** 0.06
6976 C 12.897714714456995 216.80959531910696 301.26633403280454 C 0.0 **** -0.24
6977 H 11.953033674401098 217.12144206962432 301.7116975767973 H 0.0 **** 0.06
6978 H 12.771641174149295 216.69869787162688 300.18918243248277 H 0.0 **** 0.06
6979 H 13.20540500750974 215.85703387446472 301.69679044668095 H 0.0 **** 0.06
6980 H 13.659451414467739 217.56291562262274 301.46710023970655 H 0.0 **** 0.06
6981 C 76.95265700535111 179.06679484061465 104.13663298104902 C 0.0 **** -0.24
6982 H 76.50337122517803 179.56724596806413 103.27863454960132 H 0.0 **** 0.06
6983 H 76.5551700564277 178.05445257006983 104.21543403990833 H 0.0 **** 0.06
6984 H 76.71592474161861 179.62127682231232 105.04495556647939 H 0.0 **** 0.06
6985 H 78.03414163383403 179.02379950678068 104.00837640739053 H 0.0 **** 0.06
6986 C 136.7023730365928 24.37190264076287 299.9600795642063 C 0.0 **** -0.24
6987 H 135.8381635273835 24.496357653011103 299.3080188143649 H 0.0 **** 0.06
6988 H 136.96649113645003 23.31581315450984 300.01432876652467 H 0.0 **** 0.06
6989 H 136.4595933855101 24.737960074657337 300.9583637684268 H 0.0 **** 0.06
6990 H 137.54449883961956 24.937172187590704 299.56019855248655 H 0.0 **** 0.06
6991 C 1.5065204040919298 105.26240203639381 271.86010309239424 C 0.0 **** -0.24
6992 H 1.7618866827646116 104.80812640766743 270.9022554682537 H 0.0 **** 0.06
6993 H 0.4529048505176547 105.54363126600765 271.85878379378926 H 0.0 **** 0.06
6994 H 2.1196133853808306 106.14944111358466 272.01533844917304 H 0.0 **** 0.06
6995 H 1.6912969152133996 104.5474435432358 272.66140349844284 H 0.0 **** 0.06
6996 C 122.76763320904075 22.315098174875033 193.31224239902303 C 0.0 **** -0.24
6997 H 121.81338080308663 22.780410673183326 193.06385564862438 H 0.0 **** 0.06
6998 H 123.08562772310918 22.645312507959574 194.30108583082006 H 0.0 **** 0.06
6999 H 123.51468453773833 22.603850047410276 192.57374933024414 H 0.0 **** 0.06
7000 H 122.65317613060512 21.231368168657923 193.30975274085716 H 0.0 **** 0.06
7001 C 86.9076739727002 307.1678247133891 295.6025305251135 C 0.0 **** -0.24
7002 H 85.98870564347501 307.627109414973 295.2389674349132 H 0.0 **** 0.06
7003 H 87.39703707230913 306.6372622530858 294.7845167162561 H 0.0 **** 0.06
7004 H 86.67236770486221 306.4656449365602 296.40149602203815 H 0.0 **** 0.06
7005 H 87.57374869462822 307.9417262510553 295.9835767470796 H 0.0 **** 0.06
7006 C 80.67607258554685 135.89372977385602 296.6106101681414 C 0.0 **** -0.24
7007 H 79.87240015251098 136.62516813463702 296.67958758220766 H 0.0 **** 0.06
7008 H 80.91715107894339 135.71485397446978 295.56216514622326 H 0.0 **** 0.06
7009 H 80.35908143361073 134.9593652024632 297.07480927553934 H 0.0 **** 0.06
7010 H 81.55865139603523 136.27343542334265 297.1266805306266 H 0.0 **** 0.06
7011 C 97.33823236963275 14.800451505881895 58.51336118785872 C 0.0 **** -0.24
7012 H 96.92095309225598 13.899943628951604 58.96486414660009 H 0.0 **** 0.06
7013 H 98.08436795625437 15.228889876266223 59.18344820046812 H 0.0 **** 0.06
7014 H 96.5420268436315 15.52476840461874 58.34468061491782 H 0.0 **** 0.06
7015 H 97.80615479304265 14.546046440674502 57.562691415827345 H 0.0 **** 0.06
7016 C 133.39357223370038 81.99259616489539 164.26554491885355 C 0.0 **** -0.24
7017 H 134.40365110335446 82.21391125656297 163.92097902297462 H 0.0 **** 0.06
7018 H 132.8221740188022 81.54635113379393 163.45167957265568 H 0.0 **** 0.06
7019 H 132.90990511355616 82.91539429916489 164.58748912968264 H 0.0 **** 0.06
7020 H 133.4401812591021 81.29644337750656 165.10268364275277 H 0.0 **** 0.06
7021 C 224.7957467658768 181.434103023536 20.36085027825476 C 0.0 **** -0.24
7022 H 225.18638638733523 182.30753012088547 20.882791022760784 H 0.0 **** 0.06
7023 H 225.1245929878159 180.52822903767566 20.87106478053755 H 0.0 **** 0.06
7024 H 225.1654555671144 181.42846536062314 19.335248030246532 H 0.0 **** 0.06
7025 H 223.70561402385437 181.4718595070624 20.35418615229571 H 0.0 **** 0.06
7026 C 209.62443702235194 147.58043139929387 59.467554836804254 C 0.0 **** -0.24
7027 H 209.26521658338206 147.39253495392902 58.45581032785128 H 0.0 **** 0.06
7028 H 209.26866654071705 148.55497778711705 59.80362783114373 H 0.0 **** 0.06
7029 H 210.71411416690745 147.56887140713616 59.474585825380245 H 0.0 **** 0.06
7030 H 209.24767251360961 146.80522133335518 60.13537907424484 H 0.0 **** 0.06
7031 C 21.70769056550961 47.63878916675006 265.80205226791986 C 0.0 **** -0.24
7032 H 21.567308808106645 48.22635564362517 266.70878814066316 H 0.0 **** 0.06
7033 H 22.465082271724924 48.11181469636878 265.17624957874546 H 0.0 **** 0.06
7034 H 20.766236697219185 47.58415443989 265.2560220420234 H 0.0 **** 0.06
7035 H 22.032278435940924 46.633371313797795 266.0679789496156 H 0.0 **** 0.06
7036 C 44.5453162361828 161.03038254480265 57.24227275860187 C 0.0 **** -0.24
7037 H 45.327877257402236 160.73627061423156 56.542347210101696 H 0.0 **** 0.06
7038 H 44.052958856330804 161.9321089428983 56.87769483145962 H 0.0 **** 0.06
7039 H 44.98740443462839 161.22693437747114 58.21907455647306 H 0.0 **** 0.06
7040 H 43.8147894321981 160.22719217535428 57.329008915673626 H 0.0 **** 0.06
7041 C 85.91361518847836 0.5052927883736515 49.18472080946327 C 0.0 **** -0.24
7042 H 86.86073234406061 0.2955660119696404 48.68724505670227 H 0.0 **** 0.06
7043 H 85.09028866434213 0.2933856661955474 48.50191105542589 H 0.0 **** 0.06
7044 H 85.88225399394963 1.5547653599497266 49.47774324468037 H 0.0 **** 0.06
7045 H 85.821105930155 -0.12197009967161421 50.070694652887084 H 0.0 **** 0.06
7046 C 311.3880258887309 60.492436220253296 281.75476943094014 C 0.0 **** -0.24
7047 H 312.44820253553974 60.26716919916825 281.8721730020916 H 0.0 **** 0.06
7048 H 310.84455341907335 59.57299947103078 281.53597936931885 H 0.0 **** 0.06
7049 H 311.25493064453957 61.19799019241606 280.9354138349349 H 0.0 **** 0.06
7050 H 311.0055968704543 60.93017244240724 282.67712695273616 H 0.0 **** 0.06
7051 C 203.38218331836163 153.20233305327713 34.19585274087743 C 0.0 **** -0.24
7052 H 204.39904932960172 152.9565597950222 34.50279471104082 H 0.0 **** 0.06
7053 H 203.33238774149225 154.2551370916695 33.916356030294764 H 0.0 **** 0.06
7054 H 202.69852633353145 153.01343424266184 35.023538500403106 H 0.0 **** 0.06
7055 H 203.10050553684692 152.58540213503886 33.34328003798473 H 0.0 **** 0.06
7056 C 234.07631909722895 285.5562857888377 63.777076521614276 C 0.0 **** -0.24
7057 H 233.81084950848665 285.21907011640053 64.77880244999488 H 0.0 **** 0.06
7058 H 234.0472692656339 286.6455879292168 63.74234459733731 H 0.0 **** 0.06
7059 H 233.3653710059409 285.1498337149584 63.057093273729436 H 0.0 **** 0.06
7060 H 235.08025015210197 285.21113561007905 63.53191099253749 H 0.0 **** 0.06
7061 C 243.13068020147176 194.8622405788136 131.49187268845046 C 0.0 **** -0.24
7062 H 242.48852277180737 195.60211891180546 131.97154366505663 H 0.0 **** 0.06
7063 H 243.52802968438465 194.18388574541586 132.24661334357506 H 0.0 **** 0.06
7064 H 243.95373081647352 195.3692609855927 130.98846694624882 H 0.0 **** 0.06
7065 H 242.5507621988638 194.29640709509715 130.7628281573421 H 0.0 **** 0.06
7066 C 22.736052234232375 139.35730997004757 151.43923552302675 C 0.0 **** -0.24
7067 H 23.50890529693274 138.81089418986625 150.89984115634968 H 0.0 **** 0.06
7068 H 22.211261183791635 140.0188519801985 150.75097549512049 H 0.0 **** 0.06
7069 H 23.196359619849687 139.9474277677006 152.23194508359592 H 0.0 **** 0.06
7070 H 22.029175432801622 138.6509477273445 151.87576836771478 H 0.0 **** 0.06
7071 C 171.9139498568636 252.1136864190258 212.83576194998153 C 0.0 **** -0.24
7072 H 171.25537128757162 251.24660176373752 212.8998386666651 H 0.0 **** 0.06
7073 H 172.91817979826078 251.8310533594378 213.14919475235286 H 0.0 **** 0.06
7074 H 171.53762711001792 252.904007690423 213.486069440893 H 0.0 **** 0.06
7075 H 171.9412177444791 252.47269761227415 211.80643897829896 H 0.0 **** 0.06
7076 C 150.9325244325272 139.4729932316733 222.10141754691097 C 0.0 **** -0.24
7077 H 151.0120311006791 138.7219619144243 221.31518793535915 H 0.0 **** 0.06
7078 H 151.82678524179795 139.44233512173065 222.72477702607847 H 0.0 **** 0.06
7079 H 150.05548122667943 139.26536551002644 222.71409469872285 H 0.0 **** 0.06
7080 H 150.8358909318182 140.46096858986988 221.6520479832288 H 0.0 **** 0.06
7081 C 83.1479850271885 3.864889876417223 289.21057998142095 C 0.0 **** -0.24
7082 H 82.47332575083988 4.7010213258130165 289.0266685622048 H 0.0 **** 0.06
7083 H 83.6578764382208 3.5996862412978885 288.2835070941036 H 0.0 **** 0.06
7084 H 82.57740149767471 3.0085430345551885 289.56872920731263 H 0.0 **** 0.06
7085 H 83.88490734157034 4.150043422795875 289.9610780195912 H 0.0 **** 0.06
7086 C 262.1966284317494 190.58162797445448 300.60629730207404 C 0.0 **** -0.24
7087 H 261.31236177322666 190.09013068488395 300.2022945364092 H 0.0 **** 0.06
7088 H 262.14896725213225 191.64959715215826 300.3931973302325 H 0.0 **** 0.06
7089 H 263.0898528884579 190.15888039847152 300.14556645852963 H 0.0 **** 0.06
7090 H 262.2376482824647 190.42795583477755 301.6849254113545 H 0.0 **** 0.06
7091 C 298.42421386496517 123.74740330209463 141.76893497971363 C 0.0 **** -0.24
7092 H 297.5988732282494 123.74254107636278 141.05683418420094 H 0.0 **** 0.06
7093 H 298.59528692149 122.73378759482719 142.13374803426092 H 0.0 **** 0.06
7094 H 298.17628299832654 124.39834504561017 142.6071732994466 H 0.0 **** 0.06
7095 H 299.32505119474035 124.1138728004143 141.27808209349365 H 0.0 **** 0.06
7096 C 242.75835547455142 267.3979834788772 248.6508833636049 C 0.0 **** -0.24
7097 H 243.7999992845639 267.63912900676655 248.4416505932273 H 0.0 **** 0.06
7098 H 242.12582599847315 267.80908559909557 247.8643995070812 H 0.0 **** 0.06
7099 H 242.47149749672943 267.82884047882237 249.6105713857296 H 0.0 **** 0.06
7100 H 242.6371839349357 266.31492685727915 248.6878179902546 H 0.0 **** 0.06
7101 C 250.5689747768866 253.69117014249673 97.74498440535464 C 0.0 **** -0.24
7102 H 249.71826310977764 254.35606030365415 97.8988222715451 H 0.0 **** 0.06
7103 H 250.4417145280418 253.15044112089186 96.80667086057855 H 0.0 **** 0.06
7104 H 250.62800954694845 252.98148638089094 98.56979783968711 H 0.0 **** 0.06
7105 H 251.48608449079626 254.27831919125055 97.70452313622647 H 0.0 **** 0.06
7106 C 284.7384278764696 308.01274073109647 157.76331716773456 C 0.0 **** -0.24
7107 H 284.8902189303463 309.0900995985761 157.68200476580438 H 0.0 **** 0.06
7108 H 284.97137684811 307.6892987059147 158.7776915471906 H 0.0 **** 0.06
7109 H 285.39270372465785 307.5004809071484 157.05823821114154 H 0.0 **** 0.06
7110 H 283.70007465217714 307.77400948035034 157.53530550747706 H 0.0 **** 0.06
7111 C 119.86810445466833 86.08270414846723 223.42893641864185 C 0.0 **** -0.24
7112 H 119.94823597283963 85.228369568859 224.10085137930497 H 0.0 **** 0.06
7113 H 120.69428159594489 86.76926651579288 223.61554242041836 H 0.0 **** 0.06
7114 H 118.92203498643417 86.59453887677975 223.60390247251013 H 0.0 **** 0.06
7115 H 119.90853488421695 85.73666155138497 222.39624370049916 H 0.0 **** 0.06
7116 C 62.07155068773747 277.128169021725 188.00427300825157 C 0.0 **** -0.24
7117 H 63.16021508290967 277.069607708535 187.98371184449195 H 0.0 **** 0.06
7118 H 61.67471218853174 276.85979232675567 187.0255020941093 H 0.0 **** 0.06
7119 H 61.76829236649954 278.14528916925826 188.25262225096395 H 0.0 **** 0.06
7120 H 61.68513431234874 276.44007373149896 188.75538791372577 H 0.0 **** 0.06
7121 C 79.88452066044908 40.01156096110904 238.70892162830646 C 0.0 **** -0.24
7122 H 80.86624842399152 39.56139234181825 238.56273626266898 H 0.0 **** 0.06
7123 H 79.3219028628788 39.427347917994354 239.43698116104156 H 0.0 **** 0.06
7124 H 79.34729615350349 40.026688164032464 237.7603709712544 H 0.0 **** 0.06
7125 H 80.00340693774038 41.03138511286241 239.0741559368297 H 0.0 **** 0.06
7126 C 155.59005398114482 114.86110972324477 75.43981876488203 C 0.0 **** -0.24
7127 H 154.88837190970418 114.37069162557984 74.7640497832935 H 0.0 **** 0.06
7128 H 155.28167733616004 115.89583103825507 75.59411718211797 H 0.0 **** 0.06
7129 H 156.58857832298946 114.83970123594028 75.00345404982119 H 0.0 **** 0.06
7130 H 155.59881549172258 114.33788365826805 76.3951637620981 H 0.0 **** 0.06
7131 C 300.8498918266104 44.866769657340456 62.70803637154131 C 0.0 **** -0.24
7132 H 301.2336070425526 44.21167460866877 63.489121163927734 H 0.0 **** 0.06
7133 H 300.11524275584725 45.55061862120692 63.13443605753804 H 0.0 **** 0.06
7134 H 300.3795791130338 44.265850384291184 61.929195352963234 H 0.0 **** 0.06
7135 H 301.6727149505015 45.438696129492826 62.27782529286941 H 0.0 **** 0.06
7136 C 14.981625220601302 154.96098301614904 205.4444865961491 C 0.0 **** -0.24
7137 H 14.18828423741381 155.7068911044674 205.48649320938085 H 0.0 **** 0.06
7138 H 15.755277727905948 155.29234659768332 204.75173099322598 H 0.0 **** 0.06
7139 H 14.56893902274659 154.0111653122188 205.1016370811592 H 0.0 **** 0.06
7140 H 15.412865954882278 154.8317466300665 206.43684526749536 H 0.0 **** 0.06
7141 C 186.78907347802527 243.11139523879643 283.64257825674247 C 0.0 **** -0.24
7142 H 186.21922342157063 243.06391017219457 282.71351827982573 H 0.0 **** 0.06
7143 H 186.36070812073677 242.41772082116847 284.36586953397745 H 0.0 **** 0.06
7144 H 186.74946961792836 244.12459938408605 284.041166063023 H 0.0 **** 0.06
7145 H 187.8258620344978 242.8380548356717 283.44585290447 H 0.0 **** 0.06
7146 C 135.84301685414633 0.18258368077501075 185.5574252418354 C 0.0 **** -0.24
7147 H 136.80522103354886 0.530999784152101 185.18312632050055 H 0.0 **** 0.06
7148 H 135.04917252112722 0.5304846098256064 184.8973718629329 H 0.0 **** 0.06
7149 H 135.68066320889932 0.5759138683435623 186.56095202648186 H 0.0 **** 0.06
7150 H 135.8385909789386 -0.9064491678039985 185.58970854349963 H 0.0 **** 0.06
7151 C 0.44466677040401237 87.72969572743534 164.7639231392867 C 0.0 **** -0.24
7152 H 0.19874488997942308 88.03891099473617 165.78021773286576 H 0.0 **** 0.06
7153 H 1.3932529315771376 88.17752297847903 164.46851596965632 H 0.0 **** 0.06
7154 H -0.3406362734512527 88.05985702171466 164.0840121168065 H 0.0 **** 0.06
7155 H 0.5272558909240388 86.64409230148749 164.72480047057087 H 0.0 **** 0.06
7156 C 243.08238474625574 49.44620771635687 246.5499710028139 C 0.0 **** -0.24
7157 H 242.74643175569926 50.48325745587317 246.57947999842332 H 0.0 **** 0.06
7158 H 242.36205998800435 48.846767674005264 245.9928900121437 H 0.0 **** 0.06
7159 H 243.1664275816123 49.06246080411415 247.56577287840113 H 0.0 **** 0.06
7160 H 244.05463703942826 49.39463713804389 246.05956269812378 H 0.0 **** 0.06
7161 C 291.8139773342834 290.54235449512976 191.55500474127047 C 0.0 **** -0.24
7162 H 291.90228877020775 289.56073008360806 191.09031349816104 H 0.0 **** 0.06
7163 H 292.37168864890384 291.27267329719075 190.96727104761447 H 0.0 **** 0.06
7164 H 292.21883733314485 290.50355917161323 192.56628049698912 H 0.0 **** 0.06
7165 H 290.7642073739928 290.832673279564 191.59450642144049 H 0.0 **** 0.06
7166 C 294.46012583543234 276.9709318628637 31.226297484829104 C 0.0 **** -0.24
7167 H 295.2552059817016 276.24177458130134 31.380471306852115 H 0.0 **** 0.06
7168 H 293.738521844535 276.8981904542717 32.041074586665275 H 0.0 **** 0.06
7169 H 293.96007721552166 276.7687682230412 30.278820523218968 H 0.0 **** 0.06
7170 H 294.88607536721395 277.97356076426047 31.205570014907266 H 0.0 **** 0.06
7171 C 125.21501831648911 240.36062629500307 133.02968733568244 C 0.0 **** -0.24
7172 H 125.3693182104966 240.43439965520918 131.9535802870256 H 0.0 **** 0.06
7173 H 125.65718117612658 241.2283999484779 133.5199936130254 H 0.0 **** 0.06
7174 H 125.68753874284761 239.45274812245088 133.40267663020745 H 0.0 **** 0.06
7175 H 124.14640858240978 240.32831411096896 133.24235728976964 H 0.0 **** 0.06
7176 C 270.9678969349205 62.290040642279905 267.2549504437633 C 0.0 **** -0.24
7177 H 271.8481643072414 62.00992925776325 266.6779120504609 H 0.0 **** 0.06
7178 H 270.97382597022187 61.75901457223759 268.2072568613935 H 0.0 **** 0.06
7179 H 270.06900701504634 62.026438624039315 266.69828426502147 H 0.0 **** 0.06
7180 H 270.97955255313593 63.365205602650946 267.4382829608141 H 0.0 **** 0.06
7181 C 249.59508845043106 263.6398047505113 168.7393461839897 C 0.0 **** -0.24
7182 H 249.6228209757904 262.5963236403102 169.05327838998375 H 0.0 **** 0.06
7183 H 250.54561120681993 263.9045255185056 168.27598481821252 H 0.0 **** 0.06
7184 H 249.42347745130135 264.27609714931316 169.60665292967286 H 0.0 **** 0.06
7185 H 248.7883277691817 263.7799961467135 168.01905948337185 H 0.0 **** 0.06
7186 C 60.74016405867141 170.65844516082825 110.21595807951954 C 0.0 **** -0.24
7187 H 60.375392165617825 171.65510127855737 109.9692955671294 H 0.0 **** 0.06
7188 H 61.34294745616671 170.70678251777446 111.12264657291985 H 0.0 **** 0.06
7189 H 61.347787562161216 170.28030982042526 109.39457224647575 H 0.0 **** 0.06
7190 H 59.89322444314061 169.99193754644585 110.37773643343405 H 0.0 **** 0.06
7191 C 256.3871669360893 80.92520056633361 269.39446111159936 C 0.0 **** -0.24
7192 H 256.71809577889377 81.66600607674309 268.66693609868025 H 0.0 **** 0.06
7193 H 255.71470023525762 80.21652469586962 268.91101266856305 H 0.0 **** 0.06
7194 H 255.8635414029736 81.42556724691187 270.2097284548501 H 0.0 **** 0.06
7195 H 257.2529960708949 80.39355178936455 269.7910829012693 H 0.0 **** 0.06
7196 C 168.3217565140934 59.84417970934666 159.7915287045825 C 0.0 **** -0.24
7197 H 168.1102736150259 60.473273069732926 160.65607938354287 H 0.0 **** 0.06
7198 H 167.57854480345173 59.04803265021286 159.73119155824872 H 0.0 **** 0.06
7199 H 169.31512662662038 59.40672860684009 159.8951612570442 H 0.0 **** 0.06
7200 H 168.28291895470045 60.446932410898995 158.88463335726703 H 0.0 **** 0.06
7201 C 80.96997877804907 18.435915101776573 93.62614289564368 C 0.0 **** -0.24
7202 H 81.31158774690368 17.400652452259337 93.62709709309982 H 0.0 **** 0.06
7203 H 81.83170787220698 19.10308450699543 93.6108359635472 H 0.0 **** 0.06
7204 H 80.3802824717221 18.624769487242517 94.5239182813703 H 0.0 **** 0.06
7205 H 80.354786720162 18.61422010427802 92.7435714181882 H 0.0 **** 0.06
7206 C 98.60658061119034 258.97888301433574 120.84144348626964 C 0.0 **** -0.24
7207 H 98.15076181885294 258.3503065885782 121.60655998477523 H 0.0 **** 0.06
7208 H 99.56726845628492 258.5547596835498 120.54888132906828 H 0.0 **** 0.06
7209 H 98.7577542428453 259.98205461577163 121.23864446314522 H 0.0 **** 0.06
7210 H 97.95037562663137 259.0268968439141 119.97251308648748 H 0.0 **** 0.06
7211 C 93.25577652423081 239.76255561412052 20.075289777247804 C 0.0 **** -0.24
7212 H 93.80136305336742 239.74841242783813 21.018318756251915 H 0.0 **** 0.06
7213 H 93.9639575418361 239.7599460931906 19.246324042499168 H 0.0 **** 0.06
7214 H 92.63956565802147 240.66040217598055 20.024940289564483 H 0.0 **** 0.06
7215 H 92.61855307295727 238.88016087452365 20.011132550703792 H 0.0 **** 0.06
7216 C 82.36736326971163 39.32612288000496 78.13285106032572 C 0.0 **** -0.24
7217 H 83.14501523813988 38.63542555928194 77.80721633257 H 0.0 **** 0.06
7218 H 82.45819841996553 39.49626052494594 79.20615274765339 H 0.0 **** 0.06
7219 H 81.38822304109249 38.90061827011567 77.91392278944957 H 0.0 **** 0.06
7220 H 82.47839682377298 40.27304633765846 77.60445455619487 H 0.0 **** 0.06
7221 C 209.5979263623716 151.8617269868099 297.34494782063325 C 0.0 **** -0.24
7222 H 210.47813148386751 152.35221817892835 296.927235368999 H 0.0 **** 0.06
7223 H 209.77824061505657 151.62383085749445 298.39321045530346 H 0.0 **** 0.06
7224 H 209.39770724937287 150.94393121192218 296.7931810521162 H 0.0 **** 0.06
7225 H 208.73955461309671 152.5283613914014 297.2656896486636 H 0.0 **** 0.06
7226 C 282.7584067921349 50.05547195702843 70.91680990292167 C 0.0 **** -0.24
7227 H 282.3525254864357 51.067481396486414 70.8892668984983 H 0.0 **** 0.06
7228 H 281.9480584767455 49.343341452074014 71.07700387189894 H 0.0 **** 0.06
7229 H 283.4792737853618 49.976259137286775 71.73070882683339 H 0.0 **** 0.06
7230 H 283.2522667324861 49.837584545152765 69.97040418638511 H 0.0 **** 0.06
7231 C 249.15975819345402 90.84422071940787 38.804787122687344 C 0.0 **** -0.24
7232 H 248.68719528775114 90.42277691264948 39.69166973334575 H 0.0 **** 0.06
7233 H 250.24101278048278 90.71671717193414 38.87460633918698 H 0.0 **** 0.06
7234 H 248.9234253179826 91.9058844091011 38.73784439323549 H 0.0 **** 0.06
7235 H 248.78905817757655 90.3323397074972 37.91716125877093 H 0.0 **** 0.06
7236 C 60.820858743420814 94.02515416919738 0.026034020744191366 C 0.0 **** -0.24
7237 H 60.624297884253735 93.80218005532745 1.07421898455965 H 0.0 **** 0.06
7238 H 61.44234090196156 94.91778761892914 -0.044999780206012474 H 0.0 **** 0.06
7239 H 59.876811919892305 94.19803460642345 -0.49184077568133944 H 0.0 **** 0.06
7240 H 61.3389960638967 93.18395025274265 -0.433731174963782 H 0.0 **** 0.06
7241 C 72.29668429381383 124.24586721521996 145.00943582846435 C 0.0 **** -0.24
7242 H 71.57557545769649 124.37088950581702 144.20061333185998 H 0.0 **** 0.06
7243 H 72.14628089916167 125.02698933789156 145.7536296147285 H 0.0 **** 0.06
7244 H 73.30722394292383 124.31474061681044 144.60732586846896 H 0.0 **** 0.06
7245 H 72.15598790816338 123.26915261234456 145.4725227123739 H 0.0 **** 0.06
7246 C 33.09355766447328 227.14517121918857 274.82906139117813 C 0.0 **** -0.24
7247 H 33.548713474359545 226.28141128763676 274.34481629033803 H 0.0 **** 0.06
7248 H 33.736265206761004 228.01572724930065 274.6961419955234 H 0.0 **** 0.06
7249 H 32.971077903231816 226.94289439832193 275.89302057506376 H 0.0 **** 0.06
7250 H 32.11921486174569 227.34153706650966 274.38190157007676 H 0.0 **** 0.06
7251 C 172.67899160925208 35.85328354109788 153.05393471850567 C 0.0 **** -0.24
7252 H 171.75242169338833 36.32263613264416 152.7214415734661 H 0.0 **** 0.06
7253 H 172.44854798802749 34.9218777546447 153.5710888040456 H 0.0 **** 0.06
7254 H 173.20411885827355 36.526040586450335 153.73236355232996 H 0.0 **** 0.06
7255 H 173.30918418923977 35.64321015873935 152.18919149628277 H 0.0 **** 0.06
7256 C 135.64561319007223 286.80762990505923 302.20687143327933 C 0.0 **** -0.24
7257 H 135.08018598498873 286.8397174275625 303.13811083100734 H 0.0 **** 0.06
7258 H 136.7113320464001 286.7577932707095 302.43070838324587 H 0.0 **** 0.06
7259 H 135.43878886529552 287.705930144951 301.6248587794348 H 0.0 **** 0.06
7260 H 135.3532455123518 285.92828790814156 301.6343811398634 H 0.0 **** 0.06
7261 C 151.57773502459844 4.13573010398386 267.9893648564306 C 0.0 **** -0.24
7262 H 152.41907746318878 4.394781474254842 268.63213669667374 H 0.0 **** 0.06
7263 H 150.78419368592085 4.871705114118981 268.1154809714592 H 0.0 **** 0.06
7264 H 151.2044558014881 3.1482767892960624 268.25886795109454 H 0.0 **** 0.06
7265 H 151.90575216889414 4.128697922056858 266.9486801477097 H 0.0 **** 0.06
7266 C 132.15941296428176 87.1383356911769 228.970112026139 C 0.0 **** -0.24
7267 H 131.7189104647593 87.8147043515464 229.70331345659582 H 0.0 **** 0.06
7268 H 131.4469430353868 86.96210751312816 228.16409429639117 H 0.0 **** 0.06
7269 H 132.4048771683623 86.19091122392877 229.45166322878325 H 0.0 **** 0.06
7270 H 133.0661105797216 87.58471018953995 228.56350215794376 H 0.0 **** 0.06
7271 C 8.644867239507477 32.565650363406036 125.9674335228236 C 0.0 **** -0.24
7272 H 9.725042847499992 32.707330882604396 126.00886585828323 H 0.0 **** 0.06
7273 H 8.16113652294814 33.51889028904057 125.7560722574022 H 0.0 **** 0.06
7274 H 8.29209515151544 32.183416867410216 126.92608244968363 H 0.0 **** 0.06
7275 H 8.401919266929724 31.852189277629464 125.18008295855498 H 0.0 **** 0.06
7276 C 238.51403803681225 128.7932548943741 121.06669400131136 C 0.0 **** -0.24
7277 H 237.80745838316176 129.52362117604093 121.45979148743649 H 0.0 **** 0.06
7278 H 238.76204240246403 128.07185184066057 121.84493484856384 H 0.0 **** 0.06
7279 H 239.42088405242032 129.30326517171747 120.74086095606461 H 0.0 **** 0.06
7280 H 238.06562344038224 128.2743216056439 120.21895763565948 H 0.0 **** 0.06
7281 C 65.16621888657133 166.44045362384134 139.94441111990653 C 0.0 **** -0.24
7282 H 65.1519268023086 166.2071500223645 141.00951980931794 H 0.0 **** 0.06
7283 H 64.31886016662875 165.9600367162834 139.45610574330837 H 0.0 **** 0.06
7284 H 66.09469844632156 166.07419773453898 139.50589466357522 H 0.0 **** 0.06
7285 H 65.10152499151533 167.51995450198245 139.80861751446864 H 0.0 **** 0.06
7286 C 170.63307244227798 285.3320015139707 116.46320412010317 C 0.0 **** -0.24
7287 H 169.75444928567475 285.75799440375016 116.94683182099055 H 0.0 **** 0.06
7288 H 171.32759608365353 284.97222085680914 117.22251706047106 H 0.0 **** 0.06
7289 H 171.1214054065514 286.096015483489 115.8577184278987 H 0.0 **** 0.06
7290 H 170.32995001381812 284.50202881676694 115.82444480070012 H 0.0 **** 0.06
7291 C 260.53554843799617 266.3754123902875 192.48588797629168 C 0.0 **** -0.24
7292 H 260.0932084592431 267.00791772422156 193.25586894872941 H 0.0 **** 0.06
7293 H 261.2205353595543 265.6652272662403 192.94928020509798 H 0.0 **** 0.06
7294 H 261.07977335509764 266.99639722762083 191.77516059107387 H 0.0 **** 0.06
7295 H 259.7465435027209 265.8326190062236 191.96551993007716 H 0.0 **** 0.06
7296 C 148.92937175962356 157.1656554315761 68.27863192388955 C 0.0 **** -0.24
7297 H 148.6262122357279 157.4698222654115 69.28114486460356 H 0.0 **** 0.06
7298 H 148.4638063553653 156.21166927841006 68.03257782287031 H 0.0 **** 0.06
7299 H 150.01366016268196 157.06197270639683 68.24329215121207 H 0.0 **** 0.06
7300 H 148.61273243077292 157.9219847074691 67.55947483534595 H 0.0 **** 0.06
7301 C 54.25260599240846 259.6030220936949 289.8502169213867 C 0.0 **** -0.24
7302 H 53.29092567444701 260.0744341114991 290.0523580221861 H 0.0 **** 0.06
7303 H 54.86749738469865 260.2743722001386 289.2506587832783 H 0.0 **** 0.06
7304 H 54.09335447971159 258.67207767474525 289.30557043330947 H 0.0 **** 0.06
7305 H 54.75811115886279 259.39036631527694 290.792385907321 H 0.0 **** 0.06
7306 C 140.62951581574396 73.11631517843182 268.42371585118985 C 0.0 **** -0.24
7307 H 141.56882707745856 72.56592846539547 268.383801393718 H 0.0 **** 0.06
7308 H 139.96843877295217 72.65265323647043 269.15713531176345 H 0.0 **** 0.06
7309 H 140.15487844054908 73.09770607982443 267.44281197613697 H 0.0 **** 0.06
7310 H 140.82569691892692 74.1492176563608 268.7130872394128 H 0.0 **** 0.06
7311 C 105.84734599565215 273.0168922327831 64.15881386818248 C 0.0 **** -0.24
7312 H 106.05089005028682 273.6247414957935 63.276392513121294 H 0.0 **** 0.06
7313 H 106.02606265387377 271.9674508645404 63.925924370902806 H 0.0 **** 0.06
7314 H 104.80782659513366 273.15138546460776 64.45867106542138 H 0.0 **** 0.06
7315 H 106.5031953169221 273.3273356109584 64.97207023966916 H 0.0 **** 0.06
7316 C 243.23428204516537 49.61574317935245 126.4971251951875 C 0.0 **** -0.24
7317 H 243.15655304973419 49.61399596790622 125.40957312578183 H 0.0 **** 0.06
7318 H 242.38019591248218 49.08766280428435 126.92266409033067 H 0.0 **** 0.06
7319 H 243.24370672020365 50.644342201975576 126.8582077035216 H 0.0 **** 0.06
7320 H 244.1557802122129 49.11654024509488 126.79605145160045 H 0.0 **** 0.06
7321 C 120.15980691667878 77.77081569606196 160.3470842108569 C 0.0 **** -0.24
7322 H 120.77062364022049 76.91826468014654 160.04950557048608 H 0.0 **** 0.06
7323 H 120.48589078114324 78.65857241512737 159.804408732509 H 0.0 **** 0.06
7324 H 120.26966730590289 77.93911012663648 161.4190655707299 H 0.0 **** 0.06
7325 H 119.11449767772874 77.56677389281049 160.11725409307928 H 0.0 **** 0.06
7326 C 16.218386386401818 312.3771613732379 55.49314140799095 C 0.0 **** -0.24
7327 H 15.71939252661474 312.89266627062494 54.67360789993327 H 0.0 **** 0.06
7328 H 16.02476070589806 311.3068119575898 55.42083251914923 H 0.0 **** 0.06
7329 H 15.83863470644323 312.7526289891801 56.44375651637267 H 0.0 **** 0.06
7330 H 17.291857556085645 312.556761386851 55.43522912756217 H 0.0 **** 0.06
7331 C 299.5480156882873 226.3507993901875 40.25703231651778 C 0.0 **** -0.24
7332 H 299.08534799278357 225.80348460186775 39.43476625050113 H 0.0 **** 0.06
7333 H 300.53824118968134 226.6907583535637 39.955311078814645 H 0.0 **** 0.06
7334 H 299.63666461590503 225.6961999722987 41.1237769833227 H 0.0 **** 0.06
7335 H 298.9296969084036 227.21185640972763 40.512621928614834 H 0.0 **** 0.06
7336 C 229.35093542877925 56.56931328054111 39.06173777718456 C 0.0 **** -0.24
7337 H 229.94463230832503 56.3352306403072 38.177909918299946 H 0.0 **** 0.06
7338 H 228.31276929177744 56.28702776425678 38.88571132795826 H 0.0 **** 0.06
7339 H 229.4092816266911 57.63786557143203 39.2656668503364 H 0.0 **** 0.06
7340 H 229.7390441384485 56.01421189744411 39.916419261162616 H 0.0 **** 0.06
7341 C 212.20823784102046 104.79768327513372 44.134759796781225 C 0.0 **** -0.24
7342 H 212.35163191152455 103.71913258601637 44.07259147952516 H 0.0 **** 0.06
7343 H 211.84094396158787 105.05902157197124 45.12813427763041 H 0.0 **** 0.06
7344 H 211.48212762816223 105.11164549598516 43.38503249189779 H 0.0 **** 0.06
7345 H 213.15828432814473 105.30058579134783 43.9546512720224 H 0.0 **** 0.06
7346 C 112.76127503540792 151.26521011654722 142.51756814781396 C 0.0 **** -0.24
7347 H 113.0755362379326 151.14765707284818 143.55438419998146 H 0.0 **** 0.06
7348 H 113.3786140081038 150.63467984195972 141.87652172018338 H 0.0 **** 0.06
7349 H 112.87465946548383 152.30832370979516 142.21985291613095 H 0.0 **** 0.06
7350 H 111.71578746201112 150.97133663904765 142.41887433981458 H 0.0 **** 0.06
7351 C 111.8119069381867 198.31455608555547 33.13053463767753 C 0.0 **** -0.24
7352 H 112.6429745432354 198.1690355250115 32.44084140902805 H 0.0 **** 0.06
7353 H 112.17753600689062 198.77590919044889 34.048155500955346 H 0.0 **** 0.06
7354 H 111.35979328879378 197.3497165304977 33.36259979190319 H 0.0 **** 0.06
7355 H 111.06736187298017 198.9632825235542 32.66915626336478 H 0.0 **** 0.06
7356 C 200.00824340963686 89.54198789472346 211.8146048906268 C 0.0 **** -0.24
7357 H 199.5618101721879 89.84876694451557 210.86943648076382 H 0.0 **** 0.06
7358 H 199.8929892023043 88.46548071398294 211.93825400896665 H 0.0 **** 0.06
7359 H 199.5117416218335 90.05811619923747 212.6362130071933 H 0.0 **** 0.06
7360 H 201.06860199306084 89.79659117362374 211.81505181468964 H 0.0 **** 0.06
7361 C 182.3713332985696 56.50090418382581 47.34815616935032 C 0.0 **** -0.24
7362 H 181.9515350753196 55.58060324768695 46.94180657903621 H 0.0 **** 0.06
7363 H 183.1403633016057 56.25649193179311 48.08119290592023 H 0.0 **** 0.06
7364 H 181.5816083647237 57.079843151928344 47.826581240100325 H 0.0 **** 0.06
7365 H 182.81220495125228 57.08586775142851 46.54125520994177 H 0.0 **** 0.06
7366 C 91.38600680858903 14.700434724644026 306.6616760030652 C 0.0 **** -0.24
7367 H 92.28766605932088 15.2805650455591 306.858863116516 H 0.0 **** 0.06
7368 H 91.23650719678645 13.977693455311794 307.4631130053808 H 0.0 **** 0.06
7369 H 91.49383106252586 14.174596296632629 305.7126753546586 H 0.0 **** 0.06
7370 H 90.52737296701471 15.370105905869437 306.6104140664304 H 0.0 **** 0.06
7371 C 226.6313804127376 74.08947861656398 66.20811043734372 C 0.0 **** -0.24
7372 H 226.1629235806148 74.50091131593581 67.10219302878099 H 0.0 **** 0.06
7373 H 227.41526080971562 73.38984253671916 66.49865687113325 H 0.0 **** 0.06
7374 H 227.06549282925803 74.89840841179515 65.62092192933272 H 0.0 **** 0.06
7375 H 225.88143168818226 73.56960760952933 65.612927783656 H 0.0 **** 0.06
7376 C 94.82313669087773 76.77851011760742 148.13011768504487 C 0.0 **** -0.24
7377 H 94.21759675860054 76.48258414839503 147.27307359975228 H 0.0 **** 0.06
7378 H 95.50507765869054 77.57594837831675 147.83503788844624 H 0.0 **** 0.06
7379 H 95.39583828919686 75.92052101846744 148.48294474935352 H 0.0 **** 0.06
7380 H 94.17230168910658 77.13284177442239 148.92878421273304 H 0.0 **** 0.06
7381 C 111.11361726859732 107.9935355349788 242.79145613425058 C 0.0 **** -0.24
7382 H 110.0531480877026 107.74472993018179 242.7783706122159 H 0.0 **** 0.06
7383 H 111.35089480993469 108.62139946845127 241.93288895730308 H 0.0 **** 0.06
7384 H 111.70182830775772 107.07615010089532 242.74474322176067 H 0.0 **** 0.06
7385 H 111.34894506645352 108.52970194840009 243.71092215068472 H 0.0 **** 0.06
7386 C 154.53460841299108 230.1988289636858 236.0877679493792 C 0.0 **** -0.24
7387 H 155.1810616831906 229.3906719004613 235.74568509352366 H 0.0 **** 0.06
7388 H 153.57808484283078 229.7868946486893 236.4116415916946 H 0.0 **** 0.06
7389 H 154.37105162290015 230.90337638967475 235.27238064852034 H 0.0 **** 0.06
7390 H 155.00884353273784 230.71371163644807 236.9234121531755 H 0.0 **** 0.06
7391 C 284.96154743399956 70.62153481273918 229.1014015752159 C 0.0 **** -0.24
7392 H 284.0833390804212 71.24959689513958 228.94842293993003 H 0.0 **** 0.06
7393 H 285.16812812865976 70.54074044657645 230.1687075472901 H 0.0 **** 0.06
7394 H 285.81852958464145 71.06832200852193 228.59689969497708 H 0.0 **** 0.06
7395 H 284.77403206604464 69.62959100005574 228.69020720558103 H 0.0 **** 0.06
7396 C 220.92712178293243 75.39224528683556 17.551679580584988 C 0.0 **** -0.24
7397 H 221.4755509168777 74.49920192955935 17.253600073191535 H 0.0 **** 0.06
7398 H 220.33087986687366 75.74948203947389 16.712304319984526 H 0.0 **** 0.06
7399 H 221.63198731094604 76.16736579472877 17.852556857770466 H 0.0 **** 0.06
7400 H 220.27075278990935 75.15303282087507 18.38897970337537 H 0.0 **** 0.06
7401 C 267.5038972266243 249.28149532310198 189.4498359328698 C 0.0 **** -0.24
7402 H 267.336419764989 250.2118703972626 189.99195388002352 H 0.0 **** 0.06
7403 H 268.5461352777559 248.97897851919402 189.56183498668338 H 0.0 **** 0.06
7404 H 267.2795147865918 249.4312214485647 188.39420912691685 H 0.0 **** 0.06
7405 H 266.85405337931815 248.50426667817476 189.85370963074632 H 0.0 **** 0.06
7406 C 103.46275586688697 20.94676992392303 62.207056691796964 C 0.0 **** -0.24
7407 H 102.77466487300515 21.665318208590435 61.76029332890033 H 0.0 **** 0.06
7408 H 102.93868825295777 20.00801046961398 62.38828907268996 H 0.0 **** 0.06
7409 H 103.83871203268563 21.342514474656355 63.15040687112642 H 0.0 **** 0.06
7410 H 104.29685129060667 20.772716344227646 61.52769778597022 H 0.0 **** 0.06
7411 C 254.3549721177801 180.41959685164926 0.7284571734133891 C 0.0 **** -0.24
7412 H 254.64761753797603 181.0767717714932 1.5473436934366305 H 0.0 **** 0.06
7413 H 254.4596475259329 179.3801900072146 1.0401811256227376 H 0.0 **** 0.06
7414 H 254.9943444458765 180.60736008781265 -0.13336608993449772 H 0.0 **** 0.06
7415 H 253.31672726585225 180.61529077746053 0.4593682154722245 H 0.0 **** 0.06
7416 C 5.042034077079961 9.11951075091828 156.85098207247586 C 0.0 **** -0.24
7417 H 5.876872431418633 8.815028193836312 156.2182691415187 H 0.0 **** 0.06
7418 H 5.425207509817312 9.577613461291591 157.76207831940206 H 0.0 **** 0.06
7419 H 4.4441682998884176 8.24456029463461 157.10755285148446 H 0.0 **** 0.06
7420 H 4.423504155560465 9.838641380649648 156.31414390067545 H 0.0 **** 0.06
7421 C 198.68391522479442 272.11348427819723 188.60219922389263 C 0.0 **** -0.24
7422 H 199.32244449288896 271.74179608086155 189.40360399538736 H 0.0 **** 0.06
7423 H 198.456033909783 271.300601636082 187.91256796934806 H 0.0 **** 0.06
7424 H 199.2007706846042 272.9108666830643 188.06662281322815 H 0.0 **** 0.06
7425 H 197.7579591583463 272.5018930469636 189.02634347002646 H 0.0 **** 0.06
7426 C 108.75540690416045 193.24498880724695 241.85091701915002 C 0.0 **** -0.24
7427 H 108.40125606087571 193.7104618384846 240.93037240122965 H 0.0 **** 0.06
7428 H 109.47806284352922 192.46596524294068 241.6082216770496 H 0.0 **** 0.06
7429 H 107.91104170792107 192.80491466808058 242.38239563752802 H 0.0 **** 0.06
7430 H 109.22802674266057 193.99814220108505 242.48086765261093 H 0.0 **** 0.06
7431 C 250.28350135172295 163.492280288244 210.26793670524523 C 0.0 **** -0.24
7432 H 250.73645278157642 163.17928319135274 211.20925183549832 H 0.0 **** 0.06
7433 H 249.41421092689794 164.11670606893966 210.47325584700116 H 0.0 **** 0.06
7434 H 249.97409528808373 162.61182376338076 209.70379173232476 H 0.0 **** 0.06
7435 H 251.0109752864604 164.0590634944831 209.6864336324952 H 0.0 **** 0.06
7436 C 310.6271165312123 152.2838348180166 64.65397455370814 C 0.0 **** -0.24
7437 H 310.2530900044029 152.92213864170958 63.85320446316706 H 0.0 **** 0.06
7438 H 311.7142074288598 152.23251542386447 64.59809032185706 H 0.0 **** 0.06
7439 H 310.2091283998858 151.2827028444798 64.54519934161502 H 0.0 **** 0.06
7440 H 310.3306898341514 152.69861164425663 65.61699986185454 H 0.0 **** 0.06
7441 C 166.8125665875507 296.21886186265704 203.68027691959702 C 0.0 **** -0.24
7442 H 167.80937292435777 296.31939350054466 204.10990683890805 H 0.0 **** 0.06
7443 H 166.8913624301037 295.820026291187 202.66941998233995 H 0.0 **** 0.06
7444 H 166.3294577808819 297.1952964128258 203.65003128461933 H 0.0 **** 0.06
7445 H 166.21980187446428 295.5395472182223 204.29449265344766 H 0.0 **** 0.06
7446 C 166.81558079990515 271.5762525342559 117.63212835983617 C 0.0 **** -0.24
7447 H 167.0787205343628 270.56938479207025 117.95337308177818 H 0.0 **** 0.06
7448 H 165.79843665855282 271.57800738429125 117.23873406431619 H 0.0 **** 0.06
7449 H 167.5067994777687 271.90173359648895 116.85418095085646 H 0.0 **** 0.06
7450 H 166.87773706744747 272.2572365975189 118.48134485575497 H 0.0 **** 0.06
7451 C 4.283451371934177 2.4812595294314974 163.85025458732622 C 0.0 **** -0.24
7452 H 3.515016811966973 3.1744716529396158 164.19231398059964 H 0.0 **** 0.06
7453 H 4.664400044699335 2.80840236637556 162.88307155367835 H 0.0 **** 0.06
7454 H 3.8550675995580264 1.4836807667299325 163.7540812806588 H 0.0 **** 0.06
7455 H 5.0983744561816025 2.457534968798555 164.57404244564935 H 0.0 **** 0.06
7456 C 111.50909004366096 237.94851517319057 145.96215251297892 C 0.0 **** -0.24
7457 H 110.42774083903939 237.98104838194473 146.09304496980513 H 0.0 **** 0.06
7458 H 111.91397946494422 238.95925528324392 146.02791986279053 H 0.0 **** 0.06
7459 H 111.74366820920446 237.5270148552734 144.98381416455828 H 0.0 **** 0.06
7460 H 111.95072517415076 237.32778685923634 146.7412142037462 H 0.0 **** 0.06
7461 C 191.20839292622333 132.2775462429748 107.1520059821936 C 0.0 **** -0.24
7462 H 191.8831072882009 131.90992904217853 106.3782221118793 H 0.0 **** 0.06
7463 H 190.1797647072833 132.03736999529096 106.87974192795184 H 0.0 **** 0.06
7464 H 191.31702782451572 133.35813630077402 107.24397845115905 H 0.0 **** 0.06
7465 H 191.4533254051379 131.80473601828174 108.1023558734723 H 0.0 **** 0.06
7466 C 225.7234680512161 66.13640474722698 131.2013526223237 C 0.0 **** -0.24
7467 H 226.43008969907692 66.7480842563821 131.7625971113048 H 0.0 **** 0.06
7468 H 225.93157678446147 66.2277178391742 130.13462630744428 H 0.0 **** 0.06
7469 H 224.70799462832315 66.47765056275443 131.40387514747005 H 0.0 **** 0.06
7470 H 225.8251048648986 65.09519255519723 131.50410412149182 H 0.0 **** 0.06
7471 C 77.52806571340997 224.16726147034944 179.93386130543115 C 0.0 **** -0.24
7472 H 77.23806371667857 223.20352534212236 180.35179774143228 H 0.0 **** 0.06
7473 H 77.7821159022316 224.04556874634315 178.88104236042415 H 0.0 **** 0.06
7474 H 78.39302903143528 224.5516218164883 180.47503035081485 H 0.0 **** 0.06
7475 H 76.69864477635028 224.8689288001129 180.02878876608645 H 0.0 **** 0.06
7476 C 259.82954873486767 310.8995045321856 43.708122272901534 C 0.0 **** -0.24
7477 H 260.27250402223643 310.5043656896892 44.62246534838073 H 0.0 **** 0.06
7478 H 258.8670969171097 311.3561043779828 43.93895430957349 H 0.0 **** 0.06
7479 H 259.6857235320981 310.08788402442303 42.994846861368785 H 0.0 **** 0.06
7480 H 260.49421996335263 311.64881784874393 43.27743205415911 H 0.0 **** 0.06
7481 C 47.36000838563268 247.65512190021957 147.27869330694656 C 0.0 **** -0.24
7482 H 46.856927769538856 246.82095081403128 147.76712430503161 H 0.0 **** 0.06
7483 H 46.61614063528896 248.33563531889592 146.86561631376733 H 0.0 **** 0.06
7484 H 47.993380731849584 247.2766252243319 146.47597723612694 H 0.0 **** 0.06
7485 H 47.974556312178066 248.18513758720923 148.00674932809935 H 0.0 **** 0.06
7486 C 77.05545810841298 236.14019935842217 253.79388835600287 C 0.0 **** -0.24
7487 H 77.7677523248816 236.15083396165073 252.96831267284986 H 0.0 **** 0.06
7488 H 76.32650603406151 235.34515657135037 253.63259298666566 H 0.0 **** 0.06
7489 H 76.542298448797 237.09981739504389 253.84296717777454 H 0.0 **** 0.06
7490 H 77.58656084521616 235.96258903290885 254.72858445711518 H 0.0 **** 0.06
7491 C 300.47013590695855 41.12066867459967 253.4925581831337 C 0.0 **** -0.24
7492 H 301.5579153598868 41.0492875762547 253.49537806262583 H 0.0 **** 0.06
7493 H 300.07945561349237 40.74539410473196 254.4378836566854 H 0.0 **** 0.06
7494 H 300.0690319167221 40.52655818542652 252.67147191159725 H 0.0 **** 0.06
7495 H 300.1754587325912 42.16244784004263 253.3650125651546 H 0.0 **** 0.06
7496 C 312.43459654095494 112.4824053182218 308.8523980946095 C 0.0 **** -0.24
7497 H 312.35407339493355 111.89476820926359 309.76719042269315 H 0.0 **** 0.06
7498 H 313.4337278489859 112.36648175981222 308.4323567775796 H 0.0 **** 0.06
7499 H 312.2547319120065 113.5331018004421 309.0789327836257 H 0.0 **** 0.06
7500 H 311.6939417135063 112.13434178290777 308.1318097545784 H 0.0 **** 0.06
7501 C 180.30106424802568 142.37135261417637 289.55795438436076 C 0.0 **** -0.24
7502 H 180.54299176124715 143.13037123591027 288.81472416745845 H 0.0 **** 0.06
7503 H 180.5459220001539 142.74572278668745 290.55174812726744 H 0.0 **** 0.06
7504 H 180.87820292419116 141.468766322269 289.3572947629026 H 0.0 **** 0.06
7505 H 179.23637947980245 142.14105253504852 289.5084612329541 H 0.0 **** 0.06
7506 C 98.18337092594504 95.13655677009368 40.732230870181354 C 0.0 **** -0.24
7507 H 98.78559119449017 95.11568435762581 39.823299384473444 H 0.0 **** 0.06
7508 H 97.20337393160625 94.70326637954835 40.52904454086854 H 0.0 **** 0.06
7509 H 98.0637678949025 96.16710150411754 41.0648086969037 H 0.0 **** 0.06
7510 H 98.68194546889299 94.5589777586134 41.51030815310594 H 0.0 **** 0.06
7511 C 39.77326650364148 36.8024954903629 126.11631608618163 C 0.0 **** -0.24
7512 H 40.015661298175814 37.746007645016164 126.60436416097318 H 0.0 **** 0.06
7513 H 39.1378949627661 36.20677422263404 126.77199171323636 H 0.0 **** 0.06
7514 H 40.6925209733443 36.25599684692736 125.90573403022927 H 0.0 **** 0.06
7515 H 39.24744321703639 37.00227031761841 125.18236520838866 H 0.0 **** 0.06
7516 C 6.343925237184763 133.49548400102398 233.8915190857732 C 0.0 **** -0.24
7517 H 5.359708052927701 133.89297778092416 234.14313305123287 H 0.0 **** 0.06
7518 H 6.349032012788754 132.41605338475543 234.04439752619032 H 0.0 **** 0.06
7519 H 7.095177900199715 133.95719387742156 234.5325415330634 H 0.0 **** 0.06
7520 H 6.56957213891215 133.71673306343172 232.84846746825198 H 0.0 **** 0.06
7521 C 21.903966719459504 178.77830664737792 228.40466699901768 C 0.0 **** -0.24
7522 H 20.98099532289217 178.26543279783868 228.6744438766136 H 0.0 **** 0.06
7523 H 22.025740982954943 179.66148093048724 229.03129732193054 H 0.0 **** 0.06
7524 H 21.86020054474818 179.07935452906912 227.35729359316932 H 0.0 **** 0.06
7525 H 22.749659358203928 178.1071053348998 228.5544305092435 H 0.0 **** 0.06
7526 C 272.5934416539617 3.1893954045227417 195.01760419144114 C 0.0 **** -0.24
7527 H 271.83496537783986 2.5669535978012448 195.49312631403302 H 0.0 **** 0.06
7528 H 272.1944332123904 3.603797739453398 194.09230785305385 H 0.0 **** 0.06
7529 H 273.4734093439409 2.5858585647328454 194.79767808467045 H 0.0 **** 0.06
7530 H 272.86893522156925 4.001801387624852 195.69034051753243 H 0.0 **** 0.06
7531 C 251.2362598510207 183.97368752242636 210.16372616173737 C 0.0 **** -0.24
7532 H 251.5460651540718 184.85825959588334 209.6073636266221 H 0.0 **** 0.06
7533 H 251.94681143086325 183.16584747815244 209.9861022066782 H 0.0 **** 0.06
7534 H 250.2445933378763 183.66461636950953 209.83187694393376 H 0.0 **** 0.06
7535 H 251.20737846082145 184.20530610526788 211.22770597369941 H 0.0 **** 0.06
7536 C 185.6337835137947 251.25188072549807 173.32977318256167 C 0.0 **** -0.24
7537 H 185.6063306683181 251.06347512188577 172.25701691246417 H 0.0 **** 0.06
7538 H 185.66952978149402 252.32702530402344 173.50819877999163 H 0.0 **** 0.06
7539 H 186.51782639851763 250.78282955477445 173.7598505244112 H 0.0 **** 0.06
7540 H 184.73947649792575 250.8366053013121 173.79348174362354 H 0.0 **** 0.06
7541 C 226.85745489572002 134.3180983729234 298.1932781225919 C 0.0 **** -0.24
7542 H 226.35528495834032 134.8498476804095 297.384625922144 H 0.0 **** 0.06
7543 H 226.16163659134529 133.61945506196142 298.6564398171988 H 0.0 **** 0.06
7544 H 227.2041942976243 135.03499244725504 298.93767924038974 H 0.0 **** 0.06
7545 H 227.70984987922873 133.77038131948333 297.7918230569153 H 0.0 **** 0.06
7546 C 240.2538874913624 121.61130496804063 95.61354030589726 C 0.0 **** -0.24
7547 H 241.21901954851526 121.1069590035631 95.67111299970139 H 0.0 **** 0.06
7548 H 240.03277755509643 122.07963923948287 96.57375266044099 H 0.0 **** 0.06
7549 H 239.47708990246016 120.88454217941077 95.3758162959187 H 0.0 **** 0.06
7550 H 240.28888039698393 122.37468437752494 94.83643174036223 H 0.0 **** 0.06
7551 C 9.016409260947071 70.93729712800749 18.820076414641136 C 0.0 **** -0.24
7552 H 8.629269330978559 71.10338904853148 17.815660419918345 H 0.0 **** 0.06
7553 H 8.77911241604805 71.79641702334615 19.44778619167927 H 0.0 **** 0.06
7554 H 10.09734966789651 70.80571323304588 18.776340123565745 H 0.0 **** 0.06
7555 H 8.558896358542128 70.04159060459315 19.241331826854307 H 0.0 **** 0.06
7556 C 58.62111451245357 110.13453434192363 109.94342239604666 C 0.0 **** -0.24
7557 H 59.56498408989057 109.58934028988352 109.94329410758155 H 0.0 **** 0.06
7558 H 57.79578566003238 109.43034520145397 109.83986425648487 H 0.0 **** 0.06
7559 H 58.60721381978681 110.83620799466138 109.10966331579863 H 0.0 **** 0.06
7560 H 58.51783870784493 110.68111724454636 110.87993538653714 H 0.0 **** 0.06
7561 C 215.57772163140257 36.21028398803986 117.31078221721071 C 0.0 **** -0.24
7562 H 216.29167975631844 35.86673139818555 116.56330930364922 H 0.0 **** 0.06
7563 H 214.8111001865597 36.8187845596691 116.82823794270436 H 0.0 **** 0.06
7564 H 216.09596909955727 36.80635883192801 118.06199835965361 H 0.0 **** 0.06
7565 H 215.11006664388208 35.3496747533641 117.78884801482786 H 0.0 **** 0.06
7566 C 205.68478083900715 236.60219142379637 65.2883286836686 C 0.0 **** -0.24
7567 H 206.54738339819778 235.99705260283008 65.00769692075255 H 0.0 **** 0.06
7568 H 205.83916409358739 237.01479756743703 66.28540106391856 H 0.0 **** 0.06
7569 H 204.78996255401472 235.98069237136662 65.28674454844227 H 0.0 **** 0.06
7570 H 205.56428335728327 237.41520671311315 64.5730505267068 H 0.0 **** 0.06
7571 C 310.35105760887126 85.37872872984883 87.1011689903265 C 0.0 **** -0.24
7572 H 309.7782610351914 84.95696383927296 87.92698544180496 H 0.0 **** 0.06
7573 H 310.316148284783 86.46700225035809 87.15259305124448 H 0.0 **** 0.06
7574 H 309.92397676441817 85.04458897287694 86.15623305605902 H 0.0 **** 0.06
7575 H 311.38675476707544 85.04470007785517 87.17096591459463 H 0.0 **** 0.06
7576 C 7.468917015494796 219.52618138796538 234.41312514648797 C 0.0 **** -0.24
7577 H 8.369021915021534 218.93177988493582 234.25931887634806 H 0.0 **** 0.06
7578 H 7.74645028040608 220.56620526845649 234.58978293100952 H 0.0 **** 0.06
7579 H 6.924053660575154 219.14351337186505 235.27612020077325 H 0.0 **** 0.06
7580 H 6.83716624927618 219.46419938783652 233.52735511513222 H 0.0 **** 0.06
7581 C 80.48187618637786 102.92226108320386 42.51865204449436 C 0.0 **** -0.24
7582 H 80.99632675962653 102.56809920503775 43.41189127396561 H 0.0 **** 0.06
7583 H 81.20731826229792 103.08403953963969 41.7213918139054 H 0.0 **** 0.06
7584 H 79.97105506637462 103.85924784182373 42.7420394893999 H 0.0 **** 0.06
7585 H 79.75177917902681 102.17750451252377 42.2015048214964 H 0.0 **** 0.06
7586 C 157.6578179485664 61.59063215806373 251.31423285379745 C 0.0 **** -0.24
7587 H 157.40433456716755 61.52396114365234 252.37212344356203 H 0.0 **** 0.06
7588 H 157.98128078932433 60.61229650653294 250.95631875586446 H 0.0 **** 0.06
7589 H 158.46314632325908 62.312444541966784 251.17852935067634 H 0.0 **** 0.06
7590 H 156.78224159477998 61.91211989272355 250.75008479187997 H 0.0 **** 0.06
7591 C 306.4518263964823 201.77680657703542 260.03537851781454 C 0.0 **** -0.24
7592 H 306.0111741372343 202.65163332773858 260.5146718493348 H 0.0 **** 0.06
7593 H 307.5294729271018 201.91635123247386 259.9470405511372 H 0.0 **** 0.06
7594 H 306.01819105725707 201.64916079247416 259.04353866375743 H 0.0 **** 0.06
7595 H 306.24862675404245 200.89188674260032 260.6375721220311 H 0.0 **** 0.06
7596 C 153.9800243675973 59.03107997005117 114.52289255761175 C 0.0 **** -0.24
7597 H 154.86760899213817 58.66393791981514 114.00780072274722 H 0.0 **** 0.06
7598 H 154.22255954635466 59.95397704343313 115.05009748055213 H 0.0 **** 0.06
7599 H 153.6391470523423 58.2833970413468 115.23709367175073 H 0.0 **** 0.06
7600 H 153.19246588028005 59.224854012010894 113.79491824622329 H 0.0 **** 0.06
7601 C 300.16833814362946 159.438050830441 280.42118781225275 C 0.0 **** -0.24
7602 H 299.2632513312203 158.84876121894666 280.270968073811 H 0.0 **** 0.06
7603 H 299.9548483308251 160.2675709790857 281.0950073511614 H 0.0 **** 0.06
7604 H 300.5102810114772 159.82705704140926 279.4623955561645 H 0.0 **** 0.06
7605 H 300.9436817061107 158.8069927379583 280.85464298899876 H 0.0 **** 0.06
7606 C 307.2794222832547 214.8689125436864 80.30166789304855 C 0.0 **** -0.24
7607 H 307.0394403186517 215.31971667540802 81.263534636406 H 0.0 **** 0.06
7608 H 307.3024898743299 215.6431903872716 79.5331491433555 H 0.0 **** 0.06
7609 H 306.5212458755123 214.1279115136323 80.04752549213231 H 0.0 **** 0.06
7610 H 308.2541667964074 214.3848557810337 80.35965524675339 H 0.0 **** 0.06
7611 C 26.14028543130391 230.0866418088743 301.41791273100375 C 0.0 **** -0.24
7612 H 25.780498627221675 229.9721498875661 302.44025729321737 H 0.0 **** 0.06
7613 H 26.921921194931627 230.84729914269272 301.3909996623237 H 0.0 **** 0.06
7614 H 25.314249027194876 230.3913853080689 300.7750491292814 H 0.0 **** 0.06
7615 H 26.54408294033857 229.13791011755472 301.06639730709935 H 0.0 **** 0.06
7616 C 2.4495660789496583 101.25792931314828 211.5246930519154 C 0.0 **** -0.24
7617 H 3.5241588960350896 101.11889602712114 211.64142938305196 H 0.0 **** 0.06
7618 H 1.9450497082749507 100.2985937678672 211.6377368095591 H 0.0 **** 0.06
7619 H 2.2415458882817347 101.66430277581134 210.5347412548704 H 0.0 **** 0.06
7620 H 2.087518824623942 101.95125656432563 212.28438934783233 H 0.0 **** 0.06
7621 C 208.277755085572 81.92086493761258 229.2043734585286 C 0.0 **** -0.24
7622 H 209.2674113408533 82.26551844108715 228.9029537956406 H 0.0 **** 0.06
7623 H 207.56713076916677 82.10802426684515 228.39771440532377 H 0.0 **** 0.06
7624 H 207.9628131433911 82.45725132234634 230.09823673627744 H 0.0 **** 0.06
7625 H 208.31386738147495 80.85200527959532 229.41491153926273 H 0.0 **** 0.06
7626 C 221.2247927224151 229.2443941662792 213.4941899407679 C 0.0 **** -0.24
7627 H 220.94712309308974 228.55781690698763 212.69434896000405 H 0.0 **** 0.06
7628 H 220.41942427760526 229.29164885107025 214.22767342127347 H 0.0 **** 0.06
7629 H 221.3966803989649 230.2365397768553 213.07772738474387 H 0.0 **** 0.06
7630 H 222.13625430009768 228.8903755759461 213.97632164687028 H 0.0 **** 0.06
7631 C 90.41091730512534 76.66842035020798 28.325148926315336 C 0.0 **** -0.24
7632 H 91.1748268309048 76.16077357373263 27.737011754821793 H 0.0 **** 0.06
7633 H 89.54618061613067 76.01469983541611 28.44136553247361 H 0.0 **** 0.06
7634 H 90.10924381007246 77.58403364379171 27.816377121484607 H 0.0 **** 0.06
7635 H 90.81448412519435 76.91572622447543 29.308176894607953 H 0.0 **** 0.06
7636 C 142.80962710097162 182.68586727698397 55.67860984423791 C 0.0 **** -0.24
7637 H 143.62911192612592 182.72267368330262 54.96145277930529 H 0.0 **** 0.06
7638 H 142.59537886531567 181.6483456542453 55.93285563244166 H 0.0 **** 0.06
7639 H 141.92249756833536 183.14290685295515 55.23952970253072 H 0.0 **** 0.06
7640 H 143.09090919748834 183.23121780313028 56.57925157870318 H 0.0 **** 0.06
7641 C 65.66050634926961 196.249271733458 35.07747230289971 C 0.0 **** -0.24
7642 H 66.60651824035415 196.50969617206795 35.551295012235556 H 0.0 **** 0.06
7643 H 64.9361021900682 197.04580999019782 35.249973820648506 H 0.0 **** 0.06
7644 H 65.2850983057883 195.31830400211567 35.50227135416745 H 0.0 **** 0.06
7645 H 65.81396607657311 196.12247663168267 34.00523377081072 H 0.0 **** 0.06
7646 C 208.52113848863866 38.088199636281956 89.93520641104746 C 0.0 **** -0.24
7647 H 207.6940837805265 38.71475290175482 89.602722034126 H 0.0 **** 0.06
7648 H 208.25591343333417 37.038068206430694 89.80666845185758 H 0.0 **** 0.06
7649 H 208.72575021842795 38.284875616252236 90.98782930218539 H 0.0 **** 0.06
7650 H 209.40806985588495 38.31403814025646 89.34417674618902 H 0.0 **** 0.06
7651 C 84.6917521850697 66.41150032094751 249.63900639544983 C 0.0 **** -0.24
7652 H 83.94815840424948 67.16593316553013 249.8975131183642 H 0.0 **** 0.06
7653 H 85.40401815384811 66.83197235225003 248.9299952497245 H 0.0 **** 0.06
7654 H 84.19492531755355 65.55198663129423 249.19003242427436 H 0.0 **** 0.06
7655 H 85.21699098464714 66.09664072652717 250.54053786338125 H 0.0 **** 0.06
7656 C 162.18523983946164 55.83876692584448 130.7114737085951 C 0.0 **** -0.24
7657 H 161.82533079369568 56.609007260167374 130.0288979553966 H 0.0 **** 0.06
7658 H 161.62950304500185 55.89569391882057 131.64817552292183 H 0.0 **** 0.06
7659 H 163.24592656648633 55.994560402908434 130.90850012753754 H 0.0 **** 0.06
7660 H 162.03929411906228 54.85753499965364 130.26075971961143 H 0.0 **** 0.06
7661 C 279.6316901639016 121.65749900837395 214.7378714600797 C 0.0 **** -0.24
7662 H 279.6722876156671 122.74643216183148 214.75984378971944 H 0.0 **** 0.06
7663 H 278.5910630314487 121.33456176168218 214.68517360192055 H 0.0 **** 0.06
7664 H 280.09144854358885 121.2587711058828 215.6423832863314 H 0.0 **** 0.06
7665 H 280.170279308638 121.29169785645738 213.8639483523383 H 0.0 **** 0.06
7666 C 86.10917599890209 197.32278049386093 59.50737150219274 C 0.0 **** -0.24
7667 H 85.74805248220935 198.31695744650153 59.243958626957436 H 0.0 **** 0.06
7668 H 86.95570181928852 197.06366186766894 58.8708788263645 H 0.0 **** 0.06
7669 H 85.30934525528619 196.5962286365762 59.36140049877025 H 0.0 **** 0.06
7670 H 86.42272830501199 197.31397647851355 60.550980043709416 H 0.0 **** 0.06
7671 C 240.89560801258875 3.62738996988881 29.97202649750534 C 0.0 **** -0.24
7672 H 239.92577849943132 3.9546865654767487 30.349255887115817 H 0.0 **** 0.06
7673 H 241.16924201806157 2.685000073090748 30.445697332540192 H 0.0 **** 0.06
7674 H 241.64733235912456 4.382423638339617 30.201308015773606 H 0.0 **** 0.06
7675 H 240.83645693883304 3.489651987454181 28.892015038223434 H 0.0 **** 0.06
7676 C 78.0149175272141 144.9055325532056 288.0966080340713 C 0.0 **** -0.24
7677 H 77.63367181376776 143.91637816344868 287.8452981777758 H 0.0 **** 0.06
7678 H 79.0589002415428 144.98033037550627 287.7925262568084 H 0.0 **** 0.06
7679 H 77.9371264485278 145.0621588176437 289.17227113616156 H 0.0 **** 0.06
7680 H 77.42932599286053 145.66346996318322 287.5756015171381 H 0.0 **** 0.06
7681 C 171.83963977850738 144.1436775964961 167.36937257883466 C 0.0 **** -0.24
7682 H 172.79146946365836 144.2478970613087 166.8488181606599 H 0.0 **** 0.06
7683 H 172.01645151581198 143.769693014998 168.37793566228686 H 0.0 **** 0.06
7684 H 171.20440813411727 143.44433691835994 166.82712289724276 H 0.0 **** 0.06
7685 H 171.3477689825026 145.11527671524388 167.42296945964955 H 0.0 **** 0.06
7686 C 225.9637222368475 71.32256641195218 213.98379554756156 C 0.0 **** -0.24
7687 H 226.37564821340263 72.32557624737393 213.8701310754986 H 0.0 **** 0.06
7688 H 225.90282980453145 70.84245820713417 213.00621967775032 H 0.0 **** 0.06
7689 H 224.96713096221146 71.3871821339805 214.42052084990735 H 0.0 **** 0.06
7690 H 226.60951895018246 70.73704279926727 214.63732676256654 H 0.0 **** 0.06
7691 C 260.04271703984296 192.76418073119504 197.50365699946082 C 0.0 **** -0.24
7692 H 259.98492944750694 191.88523194218033 198.1461240981423 H 0.0 **** 0.06
7693 H 259.57919221184363 192.54245240447602 196.54189006459234 H 0.0 **** 0.06
7694 H 261.08785398036014 193.0334348702621 197.3503522864089 H 0.0 **** 0.06
7695 H 259.51952720315256 193.5943451074192 197.97614704630843 H 0.0 **** 0.06
7696 C 98.4208805029323 54.62349855785632 281.5320571521805 C 0.0 **** -0.24
7697 H 98.74662382391443 55.59253197208784 281.15421475121803 H 0.0 **** 0.06
7698 H 97.89350489153793 54.084859863155486 280.74391587235397 H 0.0 **** 0.06
7699 H 97.75264088839009 54.77091017806052 282.3806860364819 H 0.0 **** 0.06
7700 H 99.2886825022486 54.046532430751654 281.849509702952 H 0.0 **** 0.06
7701 C 120.9206910333111 121.6922976588755 262.2752248245323 C 0.0 **** -0.24
7702 H 121.28906692245408 121.53915465856215 263.28906542879366 H 0.0 **** 0.06
7703 H 120.47246456692869 122.68290981660058 262.1967522880568 H 0.0 **** 0.06
7704 H 120.17087562653609 120.93585996902979 262.04241110193243 H 0.0 **** 0.06
7705 H 121.7490480435616 121.61108021876314 261.57086714232514 H 0.0 **** 0.06
7706 C 154.65260584358418 176.88149810863223 187.3779178998442 C 0.0 **** -0.24
7707 H 155.58824083165564 176.82521401394018 186.82311197700898 H 0.0 **** 0.06
7708 H 154.79184502489943 176.4501108720558 188.36934760176752 H 0.0 **** 0.06
7709 H 153.8798452570379 176.32777514214592 186.84435787155127 H 0.0 **** 0.06
7710 H 154.34973062378566 177.9249641892721 187.4744968713759 H 0.0 **** 0.06
7711 C 190.1220074954594 106.85026496343306 267.3671540950834 C 0.0 **** -0.24
7712 H 190.6429858411222 106.95540326626002 266.4159107786177 H 0.0 **** 0.06
7713 H 190.12920302230708 105.80376335916532 267.67161257459014 H 0.0 **** 0.06
7714 H 189.09128850413106 107.18945020693377 267.25573556304147 H 0.0 **** 0.06
7715 H 190.6231251331198 107.45310703307342 268.12463538409145 H 0.0 **** 0.06
7716 C 151.4039338226217 291.8091848039755 49.9176986047205 C 0.0 **** -0.24
7717 H 152.07074031334975 291.55706613485955 50.741825189227626 H 0.0 **** 0.06
7718 H 151.91883648020013 291.6464324317124 48.97061821182473 H 0.0 **** 0.06
7719 H 151.11023359414673 292.85667939161266 49.99596495436069 H 0.0 **** 0.06
7720 H 150.5162693313099 291.1789728212645 49.9626424952738 H 0.0 **** 0.06
7721 C 28.43288177861575 194.3055729278896 132.45583126465098 C 0.0 **** -0.24
7722 H 28.636509947398963 193.9422213130474 131.4490534747423 H 0.0 **** 0.06
7723 H 28.830121532648604 193.59855266520947 133.18469015330078 H 0.0 **** 0.06
7724 H 27.35633049011699 194.40509508620363 132.59461171460538 H 0.0 **** 0.06
7725 H 28.90856514429845 195.27642264709795 132.5949697159554 H 0.0 **** 0.06
7726 C 53.96934234873942 48.12881807969535 235.03258150901866 C 0.0 **** -0.24
7727 H 53.348291832565764 49.002469130093175 234.8363432720855 H 0.0 **** 0.06
7728 H 53.35695459205911 47.22833476931541 234.97900543138653 H 0.0 **** 0.06
7729 H 54.408987568882196 48.21098076955164 236.0260903002334 H 0.0 **** 0.06
7730 H 54.76368886433053 48.07387808680849 234.28764556275416 H 0.0 **** 0.06
7731 C 59.50872191199235 80.39182532829096 122.57355098408829 C 0.0 **** -0.24
7732 H 60.13185835086523 79.50577287582615 122.46057589309248 H 0.0 **** 0.06
7733 H 58.907153810897256 80.52888993597878 121.67471870545538 H 0.0 **** 0.06
7734 H 60.1426003465923 81.26562983657001 122.72326457671119 H 0.0 **** 0.06
7735 H 58.85185042067823 80.26735662841432 123.4347232890238 H 0.0 **** 0.06
7736 C 22.90529040164455 118.73176940303472 223.34104843026586 C 0.0 **** -0.24
7737 H 21.860892593098754 118.82040589081996 223.6399115088791 H 0.0 **** 0.06
7738 H 22.98649360839542 118.86405000449733 222.26243671658125 H 0.0 **** 0.06
7739 H 23.279079983978193 117.74527274504695 223.61632110310467 H 0.0 **** 0.06
7740 H 23.492798367608913 119.49793287799898 223.84695975606513 H 0.0 **** 0.06
7741 C 18.902653287199172 289.28855280250735 300.23750403015856 C 0.0 **** -0.24
7742 H 19.430818156802147 289.3040691576402 299.2839991982943 H 0.0 **** 0.06
7743 H 19.583464919372517 288.960986895845 301.0246777459201 H 0.0 **** 0.06
7744 H 18.06062646692574 288.59868684922355 300.1755269911324 H 0.0 **** 0.06
7745 H 18.537026123747296 290.2897448985647 300.4671265839287 H 0.0 **** 0.06
7746 C 132.71633300774795 292.2338758672473 294.1617077228889 C 0.0 **** -0.24
7747 H 133.53961212698047 292.9164138275066 294.3749863651126 H 0.0 **** 0.06
7748 H 131.85486787867268 292.5004875936961 294.773788900103 H 0.0 **** 0.06
7749 H 133.02253957894658 291.21352459373446 294.3886794318083 H 0.0 **** 0.06
7750 H 132.44953795008095 292.30683422148263 293.1072757304329 H 0.0 **** 0.06
7751 C 163.77112660887218 283.7554326150465 1.171733800223933 C 0.0 **** -0.24
7752 H 163.76914820195253 284.1875989702444 0.17102471278724352 H 0.0 **** 0.06
7753 H 164.67243541165283 284.0679457802112 1.69988559418141 H 0.0 **** 0.06
7754 H 163.75025320372504 282.66858569639174 1.0974948470332038 H 0.0 **** 0.06
7755 H 162.89317389427094 284.10000962198023 1.7171373775785241 H 0.0 **** 0.06
7756 C 61.757923147778 101.27979736039535 32.5323992772978 C 0.0 **** -0.24
7757 H 61.03025449246434 102.05279215747245 32.78343061085752 H 0.0 **** 0.06
7758 H 61.48436632099964 100.34928786212572 33.029359118792485 H 0.0 **** 0.06
7759 H 62.74759276253434 101.59222283119789 32.86301343447067 H 0.0 **** 0.06
7760 H 61.765836824018265 101.12680784429952 31.452772519590894 H 0.0 **** 0.06
7761 C 287.51528055481515 110.55298385990739 84.09101427940749 C 0.0 **** -0.24
7762 H 288.0152638691503 110.78284639938707 85.0315956132745 H 0.0 **** 0.06
7763 H 288.23289947780387 110.61558132472163 83.27270749671831 H 0.0 **** 0.06
7764 H 286.70941890803397 111.26746163625637 83.92304147413961 H 0.0 **** 0.06
7765 H 287.10313178912105 109.54518698566233 84.13640373626365 H 0.0 **** 0.06
7766 C 242.5419776166618 93.10041947028722 126.46309272440021 C 0.0 **** -0.24
7767 H 241.6865528951232 93.35466209981587 125.83658527460085 H 0.0 **** 0.06
7768 H 242.5038091315493 92.04143309266621 126.71648247212855 H 0.0 **** 0.06
7769 H 242.51150973260312 93.69502434265712 127.37737501891377 H 0.0 **** 0.06
7770 H 243.46363962356713 93.31342391431221 125.92210973108544 H 0.0 **** 0.06
7771 C 99.266300871694 225.23083947402617 239.4678164345791 C 0.0 **** -0.24
7772 H 99.14794126694909 225.47674313887015 240.52350471497385 H 0.0 **** 0.06
7773 H 100.29514063739106 224.92277944663735 239.28046887567285 H 0.0 **** 0.06
7774 H 99.03207044273248 226.10579568567042 238.8627494327836 H 0.0 **** 0.06
7775 H 98.58992069751551 224.41674799827751 239.20724728989177 H 0.0 **** 0.06
7776 C 291.5872677426605 22.31423124618931 42.228002263022574 C 0.0 **** -0.24
7777 H 291.90266240808694 23.342125183774243 42.05075778462057 H 0.0 **** 0.06
7778 H 291.8241871862942 21.705803103134627 41.35489360752567 H 0.0 **** 0.06
7779 H 290.51159263807847 22.290331143448867 42.407521655835524 H 0.0 **** 0.06
7780 H 292.1092561778487 21.91949523067632 43.099490013982376 H 0.0 **** 0.06
7781 C 173.60327567741678 5.321019170529894 43.60927244279807 C 0.0 **** -0.24
7782 H 173.05625119799947 6.2572191661872125 43.71026812142671 H 0.0 **** 0.06
7783 H 174.40884986511566 5.447217315868215 42.88550203103381 H 0.0 **** 0.06
7784 H 172.92525405688883 4.539277145070571 43.26493765873906 H 0.0 **** 0.06
7785 H 174.0222982159665 5.038633629835829 44.575483533637254 H 0.0 **** 0.06
7786 C 157.2268016744498 16.596496846092734 183.84009265181265 C 0.0 **** -0.24
7787 H 157.84899290713116 17.294828943492263 183.28071022463268 H 0.0 **** 0.06
7788 H 157.65336319957203 15.594810724371442 183.77216962871103 H 0.0 **** 0.06
7789 H 156.22016709366886 16.592347532404006 183.42078732318157 H 0.0 **** 0.06
7790 H 157.184065447114 16.903327637179274 184.88523179627543 H 0.0 **** 0.06
7791 C 25.157657094588444 213.0940260034567 22.822318288024036 C 0.0 **** -0.24
7792 H 25.816860577766846 213.23188384501088 23.67839148911841 H 0.0 **** 0.06
7793 H 24.58350558988633 214.00532233512732 22.654985100898926 H 0.0 **** 0.06
7794 H 24.476548091356563 212.26643265084167 23.01750822894809 H 0.0 **** 0.06
7795 H 25.754323478649894 212.8721334074882 21.937156012006398 H 0.0 **** 0.06
7796 C 99.54692473213069 34.36968243181863 106.96407816958165 C 0.0 **** -0.24
7797 H 99.5360305997209 33.58406555967002 106.20941083074271 H 0.0 **** 0.06
7798 H 98.79119116511 34.15599701956464 107.7214021955175 H 0.0 **** 0.06
7799 H 99.32916511266953 35.32810198275092 106.49383987041676 H 0.0 **** 0.06
7800 H 100.52973588872581 34.40982959580478 107.43264703438376 H 0.0 **** 0.06
7801 C 241.48377071291117 272.02858860355946 12.408511940540166 C 0.0 **** -0.24
7802 H 241.38522922843862 273.0782868682336 12.685182284114532 H 0.0 **** 0.06
7803 H 241.31001943274552 271.4040571988563 13.285729344888964 H 0.0 **** 0.06
7804 H 242.48713578463492 271.8468182385943 12.024344771339244 H 0.0 **** 0.06
7805 H 240.74966902086493 271.7865198461858 11.63903628848729 H 0.0 **** 0.06
7806 C 239.96127528103105 272.7560556837377 263.6713796257126 C 0.0 **** -0.24
7807 H 239.50529181630137 271.8422707939469 264.05137910139143 H 0.0 **** 0.06
7808 H 240.00183792606134 272.7159482201507 262.58280054551847 H 0.0 **** 0.06
7809 H 240.97221501593668 272.8499212548689 264.0696037619662 H 0.0 **** 0.06
7810 H 239.36731854731778 273.6153861838875 263.981461609544 H 0.0 **** 0.06
7811 C 50.447702125824094 175.71863256219535 75.69668941399254 C 0.0 **** -0.24
7812 H 50.45452338334576 174.6289561450813 75.73928203734812 H 0.0 **** 0.06
7813 H 50.48793441377893 176.04100854887076 74.65569448548717 H 0.0 **** 0.06
7814 H 51.314600946119015 176.1083126290613 76.23079729934881 H 0.0 **** 0.06
7815 H 49.536453080050364 176.09464010755926 76.15922572771609 H 0.0 **** 0.06
7816 C 77.53822783265221 107.51783006015356 274.5437590374117 C 0.0 **** -0.24
7817 H 76.62412294446557 107.23365098433598 275.0660404374243 H 0.0 **** 0.06
7818 H 78.39572782595425 107.06654092675302 275.04151221249583 H 0.0 **** 0.06
7819 H 77.63959984158146 108.60312934691558 274.55557109679495 H 0.0 **** 0.06
7820 H 77.48984273868717 107.16895190730958 273.51195950764094 H 0.0 **** 0.06
7821 C 177.8104109172263 301.07103187794337 112.72671572689993 C 0.0 **** -0.24
7822 H 177.3967493295736 301.3620529775006 111.76113343589293 H 0.0 **** 0.06
7823 H 178.61757220714992 300.3544581271275 112.57480436636214 H 0.0 **** 0.06
7824 H 177.0280901968889 300.6147284709393 113.33326567653629 H 0.0 **** 0.06
7825 H 178.19703048268383 301.95279816553324 113.23658911359558 H 0.0 **** 0.06
7826 C 73.05970633823199 87.11419204375994 284.5520135046542 C 0.0 **** -0.24
7827 H 72.11884597813025 86.6634116654682 284.8659134538545 H 0.0 **** 0.06
7828 H 73.88983750909699 86.48276556374535 284.87083821445196 H 0.0 **** 0.06
7829 H 73.15851523562537 88.1007681770894 285.00450403904733 H 0.0 **** 0.06
7830 H 73.07216946376488 87.21067230814515 283.46580653337196 H 0.0 **** 0.06
7831 C 281.0065722426441 288.96590953539373 243.80443899391014 C 0.0 **** -0.24
7832 H 280.3644602485905 288.2917183862088 243.23870511127302 H 0.0 **** 0.06
7833 H 280.6490676353032 289.0308492301898 244.83200341567095 H 0.0 **** 0.06
7834 H 280.9857570855924 289.9559932084597 243.3485405386732 H 0.0 **** 0.06
7835 H 282.028415345508 288.58516690497225 243.79851639078737 H 0.0 **** 0.06
7836 C 4.585974778623779 105.04775364430415 217.94992123780042 C 0.0 **** -0.24
7837 H 4.897672298727201 104.73609982769628 218.9473569045302 H 0.0 **** 0.06
7838 H 4.954628646315868 104.33300914548903 217.21445813522536 H 0.0 **** 0.06
7839 H 4.99330859201109 106.03503658398148 217.73379880009526 H 0.0 **** 0.06
7840 H 3.4969565523126818 105.08666073472534 217.90585427812545 H 0.0 **** 0.06
7841 C 174.97375841494937 83.68730608355528 217.377278423816 C 0.0 **** -0.24
7842 H 175.13182162776394 84.76457922916961 217.33479387545535 H 0.0 **** 0.06
7843 H 175.7120038356698 83.2384663479383 218.04194897463333 H 0.0 **** 0.06
7844 H 175.07894902477494 83.26488516642323 216.37808782470995 H 0.0 **** 0.06
7845 H 173.97232285955153 83.48227618656423 217.754108510596 H 0.0 **** 0.06
7846 C 186.75689178804572 314.3367604356363 105.49392366990426 C 0.0 **** -0.24
7847 H 186.3179849012849 314.8795556428769 106.33081342109992 H 0.0 **** 0.06
7848 H 186.02304838350852 314.2514597800272 104.69224230709187 H 0.0 **** 0.06
7849 H 187.05277162861904 313.3403297259993 105.82243137427261 H 0.0 **** 0.06
7850 H 187.63189091600913 314.87432742033246 105.13099722428328 H 0.0 **** 0.06
7851 C 75.16947327463816 31.518516382537882 145.31759906340432 C 0.0 **** -0.24
7852 H 75.09149028159894 30.528249116379925 145.76588774537387 H 0.0 **** 0.06
7853 H 74.68261456254979 31.514923760651982 144.34245033791223 H 0.0 **** 0.06
7854 H 76.22005962248193 31.78238174366956 145.19923630090682 H 0.0 **** 0.06
7855 H 74.68238389870959 32.24888089595544 145.96456967521664 H 0.0 **** 0.06
7856 C 304.0479076470451 297.30900477095685 65.74276748561272 C 0.0 **** -0.24
7857 H 304.34449173921547 296.61325709708774 66.52651259234528 H 0.0 **** 0.06
7858 H 304.5101155170732 297.01270367312543 64.8003997758064 H 0.0 **** 0.06
7859 H 304.3736438141122 298.3147708985364 66.00675572905061 H 0.0 **** 0.06
7860 H 302.96349738523116 297.2947411121601 65.63548151236134 H 0.0 **** 0.06
7861 C 75.30083841112815 66.25517172687 214.73489983563923 C 0.0 **** -0.24
7862 H 75.0926986207028 65.19661745364382 214.89370799857977 H 0.0 **** 0.06
7863 H 76.0079152968537 66.604103245375 215.48752485731072 H 0.0 **** 0.06
7864 H 74.37348095317543 66.82278477802674 214.81499304058707 H 0.0 **** 0.06
7865 H 75.72786529272804 66.39492819509013 213.74164683492785 H 0.0 **** 0.06
7866 C 200.03162006750563 259.26254636266697 244.78065789228805 C 0.0 **** -0.24
7867 H 200.42527861885048 258.24688018907625 244.81888770114665 H 0.0 **** 0.06
7868 H 199.00913229472764 259.2695730222985 245.1599173499361 H 0.0 **** 0.06
7869 H 200.03959200203468 259.6166549579242 243.74992082594014 H 0.0 **** 0.06
7870 H 200.65217702974837 259.9159043648184 245.39463650049646 H 0.0 **** 0.06
7871 C 213.2196884198197 68.9522007571677 123.09448951118716 C 0.0 **** -0.24
7872 H 212.88365495349376 69.81288927771197 122.51555848465267 H 0.0 **** 0.06
7873 H 214.09384436585952 69.22941482367514 123.68311765396413 H 0.0 **** 0.06
7874 H 213.4809283160648 68.13864288852233 122.41634743945147 H 0.0 **** 0.06
7875 H 212.41985844173274 68.62763668272976 123.75965829807762 H 0.0 **** 0.06
7876 C 164.8831142699966 228.36912111509278 272.1388963192453 C 0.0 **** -0.24
7877 H 165.69238307315834 227.9834492241548 272.7586023341209 H 0.0 **** 0.06
7878 H 164.02395516399514 227.70120133687408 272.2062992389587 H 0.0 **** 0.06
7879 H 165.2167645661316 228.42932804858603 271.1026994472845 H 0.0 **** 0.06
7880 H 164.60048814845982 229.36242369973687 272.48714306992485 H 0.0 **** 0.06
7881 C 264.8353866216403 235.7456184566815 168.56682437798298 C 0.0 **** -0.24
7882 H 264.1484880591276 235.8438355280874 167.72611270183654 H 0.0 **** 0.06
7883 H 264.5734364985796 234.86103114524212 169.1480728405894 H 0.0 **** 0.06
7884 H 264.7635880342957 236.63106351538255 169.19848200761686 H 0.0 **** 0.06
7885 H 265.8543967416025 235.64769640855258 168.19321897737353 H 0.0 **** 0.06
7886 C 179.47825522020793 192.66013836168264 175.4918896541551 C 0.0 **** -0.24
7887 H 180.20019150757577 192.03670083264052 176.020815926125 H 0.0 **** 0.06
7888 H 179.80710045003838 192.8016368519883 174.461603116839 H 0.0 **** 0.06
7889 H 179.40489144252945 193.62804307040915 175.9866699852708 H 0.0 **** 0.06
7890 H 178.50348149818086 192.17241539320725 175.4994293399485 H 0.0 **** 0.06
7891 C 95.60753575140043 77.95415210414225 285.53297399420234 C 0.0 **** -0.24
7892 H 94.83950687715921 78.06424220900968 284.76675981301605 H 0.0 **** 0.06
7893 H 96.59117061122629 77.95470709650283 285.06446518994267 H 0.0 **** 0.06
7894 H 95.45739097154845 77.01486538851074 286.0645474675622 H 0.0 **** 0.06
7895 H 95.53919310083916 78.78382448320207 286.2369202830444 H 0.0 **** 0.06
7896 C 255.0661569952071 129.15968615418151 288.9423891545388 C 0.0 **** -0.24
7897 H 254.60146972160499 129.4025885766308 287.9871438992085 H 0.0 **** 0.06
7898 H 254.5651952956863 129.70899567436186 289.74004495778223 H 0.0 **** 0.06
7899 H 256.119512043202 129.43720135183307 288.91550413568814 H 0.0 **** 0.06
7900 H 254.977038152568 128.08898108728698 289.1282946283728 H 0.0 **** 0.06
7901 C 104.89428957880943 298.5393802522587 176.59174436836122 C 0.0 **** -0.24
7902 H 104.79462766818392 298.0050457942181 177.53648800551343 H 0.0 **** 0.06
7903 H 105.26625332806958 297.85820210402545 175.82681715174584 H 0.0 **** 0.06
7904 H 105.5929865048434 299.3667610506745 176.71333370705372 H 0.0 **** 0.06
7905 H 103.92039307459868 298.9267638335189 176.2901305153277 H 0.0 **** 0.06
7906 C 299.6611431100973 167.96287321137277 268.1128615054825 C 0.0 **** -0.24
7907 H 299.1563336240812 168.81108670553562 268.57461966563113 H 0.0 **** 0.06
7908 H 299.99625405916515 168.24134258944486 267.1130241118966 H 0.0 **** 0.06
7909 H 298.97117155389475 167.12254583802218 268.0438796088147 H 0.0 **** 0.06
7910 H 300.52165586364094 167.67772173848937 268.71796297442546 H 0.0 **** 0.06
7911 C 213.70127589565558 116.79876548714142 245.95043043593788 C 0.0 **** -0.24
7912 H 212.9354393794313 116.18557056486443 246.42436583582517 H 0.0 **** 0.06
7913 H 213.54583499543315 116.80480979835554 244.8719611785445 H 0.0 **** 0.06
7914 H 214.68589973728825 116.38745806746621 246.17406954145457 H 0.0 **** 0.06
7915 H 213.63912134458724 117.81820605508841 246.3329419993682 H 0.0 **** 0.06
7916 C 143.83495371351162 210.02113469886993 60.03885684728738 C 0.0 **** -0.24
7917 H 144.26303036480724 210.77720810190056 60.69686424750515 H 0.0 **** 0.06
7918 H 142.76529669076132 209.9353860128622 60.23096975140555 H 0.0 **** 0.06
7919 H 144.31648334443034 209.06133739910496 60.22669643053959 H 0.0 **** 0.06
7920 H 143.9960094919071 210.31137804637729 59.00026780980977 H 0.0 **** 0.06
7921 C 0.6533256134576391 195.39485230933087 192.0789149669235 C 0.0 **** -0.24
7922 H 0.8116097809892722 195.7010070743852 193.1128597095676 H 0.0 **** 0.06
7923 H -0.4095017367070568 195.22100431968596 191.91062875128802 H 0.0 **** 0.06
7924 H 1.2081357905498749 194.4770129929247 191.88232653861905 H 0.0 **** 0.06
7925 H 1.003843721460612 196.18082612902833 191.40941025145145 H 0.0 **** 0.06
7926 C 283.46913207814754 194.44389640556346 144.92910522786727 C 0.0 **** -0.24
7927 H 283.67071703147076 193.4216796735057 145.24883293674856 H 0.0 **** 0.06
7928 H 282.4183970454596 194.67799846206123 145.09993692237109 H 0.0 **** 0.06
7929 H 283.69740675459315 194.54435765978906 143.86826708937534 H 0.0 **** 0.06
7930 H 284.09230308912754 195.13240522924445 145.5011155838863 H 0.0 **** 0.06
7931 C 216.15875705829006 254.05361975622145 219.65302278737323 C 0.0 **** -0.24
7932 H 217.2273339648571 254.2675536495451 219.69504706345037 H 0.0 **** 0.06
7933 H 215.82955626968538 254.05746239032254 218.6132312546973 H 0.0 **** 0.06
7934 H 215.613480910007 254.81448884448736 220.21017760977298 H 0.0 **** 0.06
7935 H 215.9671902707065 253.07471667677572 220.09175992268572 H 0.0 **** 0.06
7936 C 260.7691723454253 312.9244057651682 84.80144580930335 C 0.0 **** -0.24
7937 H 260.7207106549963 314.0122463057197 84.76079153936593 H 0.0 **** 0.06
7938 H 260.7270052719781 312.5972071332004 85.83945078758686 H 0.0 **** 0.06
7939 H 261.7022581268036 312.5862044344034 84.35083496356611 H 0.0 **** 0.06
7940 H 259.92682359019864 312.50313169424817 84.25194413905061 H 0.0 **** 0.06
7941 C 93.27019064194016 61.12010944726501 167.55476597204262 C 0.0 **** -0.24
7942 H 93.01776962837741 61.6140856868609 166.6162482798503 H 0.0 **** 0.06
7943 H 94.31794219466298 60.82055252051265 167.53683052784976 H 0.0 **** 0.06
7944 H 92.64270429198544 60.237965970861865 167.68050425542413 H 0.0 **** 0.06
7945 H 93.10222540089833 61.80771370881513 168.38375717094237 H 0.0 **** 0.06
7946 C 104.16005370889195 49.5026004815428 295.82437895984157 C 0.0 **** -0.24
7947 H 103.33829459302018 48.878313449765926 295.47394778810315 H 0.0 **** 0.06
7948 H 105.09870511798286 48.95697714185218 295.72387992103893 H 0.0 **** 0.06
7949 H 103.99950498476704 49.75931077036569 296.87195487078486 H 0.0 **** 0.06
7950 H 104.20265166043541 50.41437144061098 295.22908871130403 H 0.0 **** 0.06
7951 C 56.11654200476079 213.38763507110517 49.30492103637394 C 0.0 **** -0.24
7952 H 56.510744608464165 212.469506104393 49.74095298401144 H 0.0 **** 0.06
7953 H 56.53455344801287 213.52328123421188 48.307784687328535 H 0.0 **** 0.06
7954 H 56.39098086773723 214.2344028679897 49.9334661464749 H 0.0 **** 0.06
7955 H 55.03048614612686 213.32179188002505 49.238968807400255 H 0.0 **** 0.06
7956 C 211.34662102952407 58.104406059245036 254.48179427271882 C 0.0 **** -0.24
7957 H 211.19228382197562 58.83256108771249 255.27837674361905 H 0.0 **** 0.06
7958 H 210.47320953974202 57.4564375159039 254.40631919291502 H 0.0 **** 0.06
7959 H 212.22753389433967 57.50211019705293 254.70715526196136 H 0.0 **** 0.06
7960 H 211.49639458804745 58.62603049177736 253.53639108707014 H 0.0 **** 0.06
7961 C 66.28456699755426 206.52630886879678 235.80183185092264 C 0.0 **** -0.24
7962 H 66.8654763788152 206.44101712880155 236.71967712960293 H 0.0 **** 0.06
7963 H 65.8252866863061 207.51426137749877 235.7536468778543 H 0.0 **** 0.06
7964 H 65.50689794773112 205.76290966613203 235.79209253947596 H 0.0 **** 0.06
7965 H 66.9400752517765 206.3888835456085 234.94249864761514 H 0.0 **** 0.06
7966 C 165.72330021436238 128.2251324119296 52.86301355394107 C 0.0 **** -0.24
7967 H 166.58710746329263 128.39951550461728 52.22166815347927 H 0.0 **** 0.06
7968 H 164.89715324409758 128.85928578559054 52.539072141160005 H 0.0 **** 0.06
7969 H 165.9825915129236 128.4632615447003 53.89365504340671 H 0.0 **** 0.06
7970 H 165.42595766905623 127.17823695362844 52.795251735068746 H 0.0 **** 0.06
7971 C 238.62044981636114 244.382745907678 165.51890231704874 C 0.0 **** -0.24
7972 H 238.6249016599191 243.65471865975107 164.7068556044548 H 0.0 **** 0.06
7973 H 238.34529182726638 245.3617624172534 165.12667010950122 H 0.0 **** 0.06
7974 H 239.61531667075286 244.43556264516283 165.96318678952417 H 0.0 **** 0.06
7975 H 237.89957715521757 244.0775820676496 166.2760079751905 H 0.0 **** 0.06
7976 C 238.74005534423645 132.36472869416855 215.39541075620616 C 0.0 **** -0.24
7977 H 239.31687401051124 133.2886739103207 215.4374323457597 H 0.0 **** 0.06
7978 H 237.83958349745447 132.47062814057813 216.00043068182322 H 0.0 **** 0.06
7979 H 239.34416005752843 131.5429072018058 215.78234006340367 H 0.0 **** 0.06
7980 H 238.46226513847404 132.1563500153815 214.3623293089825 H 0.0 **** 0.06
7981 C 295.3381044143113 130.3829622279432 173.75402231052232 C 0.0 **** -0.24
7982 H 295.82306427638264 129.7882448535883 172.98038898424727 H 0.0 **** 0.06
7983 H 295.9068959338642 131.29846035704796 173.91814036270262 H 0.0 **** 0.06
7984 H 295.2959136469351 129.80976389421696 174.67986784661832 H 0.0 **** 0.06
7985 H 294.3257521096262 130.63650896920194 173.43737863537848 H 0.0 **** 0.06
7986 C 285.61273887257227 171.4230362875267 10.335374476999107 C 0.0 **** -0.24
7987 H 286.32565320367314 170.630906168386 10.561353181443764 H 0.0 **** 0.06
7988 H 286.06678613429585 172.39240200423222 10.546368674661721 H 0.0 **** 0.06
7989 H 284.7227239920991 171.2973968098317 10.951219083983531 H 0.0 **** 0.06
7990 H 285.3368381682062 171.37361710885784 9.28214853024933 H 0.0 **** 0.06
7991 C 221.60987124878056 102.32080606682518 112.81881285626227 C 0.0 **** -0.24
7992 H 221.9658441928564 102.23441481287611 111.79172563079993 H 0.0 **** 0.06
7993 H 221.66622884863023 103.36233799405923 113.1362107424431 H 0.0 **** 0.06
7994 H 222.23129479680722 101.70768592271821 113.4709453653798 H 0.0 **** 0.06
7995 H 220.57705402599936 101.9787582377611 112.87433952549972 H 0.0 **** 0.06
7996 C 55.60113454428733 82.14035830522147 173.18234112303838 C 0.0 **** -0.24
7997 H 56.609042966223114 82.4271654099881 173.48326079709653 H 0.0 **** 0.06
7998 H 55.50553849375734 82.23459413763095 172.0999884266975 H 0.0 **** 0.06
7999 H 54.876824539491395 82.79274795135828 173.66947571836397 H 0.0 **** 0.06
8000 H 55.41622256239498 81.10696396303763 173.47478263899814 H 0.0 **** 0.06
8001 C 36.037121565116735 116.58399927822302 138.12252413465615 C 0.0 **** -0.24
8002 H 35.68230167133595 115.8862977245667 137.36386364694752 H 0.0 **** 0.06
8003 H 35.71292415884079 117.59338113572946 137.8663412622395 H 0.0 **** 0.06
8004 H 37.1252522148458 116.55160821043091 138.1652424256446 H 0.0 **** 0.06
8005 H 35.62560362819724 116.30611325603192 139.09258789230523 H 0.0 **** 0.06
8006 C 165.05310703291633 130.97882846501594 87.60911174726695 C 0.0 **** -0.24
8007 H 164.01314412315332 131.22422560524697 87.39160601378424 H 0.0 **** 0.06
8008 H 165.18234132340058 130.86610639967301 88.68533736587068 H 0.0 **** 0.06
8009 H 165.69711664534907 131.77971798289994 87.24658182171828 H 0.0 **** 0.06
8010 H 165.31679631424566 130.04629928562392 87.1109856199678 H 0.0 **** 0.06
8011 C 50.58139264720228 181.15481189664382 75.54291217851895 C 0.0 **** -0.24
8012 H 51.17798120142186 180.71550375440324 76.34169237227022 H 0.0 **** 0.06
8013 H 51.09879719504448 181.03047665136728 74.59232413700974 H 0.0 **** 0.06
8014 H 50.43483321735471 182.21628866322197 75.74175572480141 H 0.0 **** 0.06
8015 H 49.61207230100297 180.65701426606006 75.49707614904673 H 0.0 **** 0.06
8016 C 258.8769842664042 115.33878737465386 139.97558688145398 C 0.0 **** -0.24
8017 H 258.05201916795 115.87152283364873 139.50251725940618 H 0.0 **** 0.06
8018 H 259.7687820877587 115.4262520428777 139.35522414382856 H 0.0 **** 0.06
8019 H 258.6133309028123 114.28746932272006 140.08813733480528 H 0.0 **** 0.06
8020 H 259.0725268859303 115.7708749872213 140.95712176624343 H 0.0 **** 0.06
8021 C 228.41634496160702 225.33928673134136 158.87247395033137 C 0.0 **** -0.24
8022 H 228.20368219978383 224.37133744130375 159.32734984100648 H 0.0 **** 0.06
8023 H 229.1396410313398 225.2117814179924 158.06658528309475 H 0.0 **** 0.06
8024 H 228.8271254666115 226.0122829391086 159.6253895053435 H 0.0 **** 0.06
8025 H 227.4957008169124 225.76231427779857 158.4708604514318 H 0.0 **** 0.06
8026 C 263.27942774684897 52.573958478451004 140.79562165865354 C 0.0 **** -0.24
8027 H 263.5015084270264 51.53184783855343 140.5661506690815 H 0.0 **** 0.06
8028 H 264.1854740051359 53.070808550195665 141.14375459005754 H 0.0 **** 0.06
8029 H 262.51730849212464 52.62058042019035 141.5738054339731 H 0.0 **** 0.06
8030 H 262.9124801172558 53.07261578318415 139.89843512275755 H 0.0 **** 0.06
8031 C 90.10381429960125 111.63548306106944 300.31227230898713 C 0.0 **** -0.24
8032 H 90.88136342682625 112.38413359523724 300.46734354071026 H 0.0 **** 0.06
8033 H 89.4389565179473 111.61923226631677 301.1760751761822 H 0.0 **** 0.06
8034 H 90.5641635300012 110.65563870374262 300.1871045434118 H 0.0 **** 0.06
8035 H 89.53251367664288 111.88533076978041 299.4181212750143 H 0.0 **** 0.06
8036 C 241.28509018478536 177.44216876377493 258.97551624102266 C 0.0 **** -0.24
8037 H 241.31269418103656 177.63401563639889 260.0480935791607 H 0.0 **** 0.06
8038 H 241.71373072453963 178.29223572382097 258.4436640002069 H 0.0 **** 0.06
8039 H 240.25191622309632 177.2981086083633 258.65926066877444 H 0.0 **** 0.06
8040 H 241.86179061232804 176.54526043684825 258.7512788303702 H 0.0 **** 0.06
8041 C 218.09487779812082 237.37905309239983 69.91601223551544 C 0.0 **** -0.24
8042 H 218.56775206992143 237.86850599926393 70.76713450795066 H 0.0 **** 0.06
8043 H 217.51028458687637 236.5286023919781 70.26512644036748 H 0.0 **** 0.06
8044 H 218.86183467146262 237.0342746650328 69.222256268548 H 0.0 **** 0.06
8045 H 217.43896988397222 238.08702402240982 69.40867475056828 H 0.0 **** 0.06
8046 C 145.63346428321282 104.8845282341407 242.6284760464518 C 0.0 **** -0.24
8047 H 146.05715071431558 103.89489385614397 242.45486452583046 H 0.0 **** 0.06
8048 H 144.5464967660553 104.82812721571923 242.57306945734203 H 0.0 **** 0.06
8049 H 146.00161252267762 105.57486008131664 241.86837133500373 H 0.0 **** 0.06
8050 H 145.93045982538763 105.23837442077445 243.61557881346567 H 0.0 **** 0.06
8051 C 116.95232787390205 170.83064516275743 41.45423382558985 C 0.0 **** -0.24
8052 H 116.25604787702247 170.82003665762608 40.615503847119896 H 0.0 **** 0.06
8053 H 117.96111426307272 171.01522065314612 41.08567411964617 H 0.0 **** 0.06
8054 H 116.92084352163226 169.8684263984947 41.964690613322034 H 0.0 **** 0.06
8055 H 116.669586102148 171.62029534064385 42.15077172082644 H 0.0 **** 0.06
8056 C 212.07893371605218 307.90152797641275 33.37049626941078 C 0.0 **** -0.24
8057 H 211.9565082071225 308.75216032050207 32.70012326930748 H 0.0 **** 0.06
8058 H 211.7796004933783 306.9882179642872 32.85571981664347 H 0.0 **** 0.06
8059 H 211.45597662666827 308.04266303751217 34.25304921616021 H 0.0 **** 0.06
8060 H 213.12317753761943 307.8237649276756 33.67157781150155 H 0.0 **** 0.06
8061 C 268.87216637727755 208.43731822456246 212.7749140232519 C 0.0 **** -0.24
8062 H 268.57739350211745 207.49845779485855 212.30669036600034 H 0.0 **** 0.06
8063 H 268.57275394648474 208.4297121705971 213.82320677650213 H 0.0 **** 0.06
8064 H 268.3853219834994 209.2672241513131 212.2631660023635 H 0.0 **** 0.06
8065 H 269.9540893225489 208.55344743433457 212.70646623371158 H 0.0 **** 0.06
8066 C 106.89991480850969 101.25101523850694 82.85201164185744 C 0.0 **** -0.24
8067 H 107.15263698696751 101.77871227252768 83.7720109318434 H 0.0 **** 0.06
8068 H 107.57073369130944 100.40019882033468 82.72658514619019 H 0.0 **** 0.06
8069 H 107.0075445303051 101.92737845662361 82.00459026737633 H 0.0 **** 0.06
8070 H 105.87074589282548 100.897620108252 82.90708949925624 H 0.0 **** 0.06
8071 C 146.773442110983 52.19416601442455 23.046171478193628 C 0.0 **** -0.24
8072 H 146.04361395000507 52.05102581041399 22.25045037170534 H 0.0 **** 0.06
8073 H 147.45546550141597 53.000106025883326 22.77349741080937 H 0.0 **** 0.06
8074 H 147.33756429968017 51.27352687922689 23.19119590106513 H 0.0 **** 0.06
8075 H 146.256385954676 52.45258455671518 23.96988687532715 H 0.0 **** 0.06
8076 C 77.5476174502108 184.56271721537246 41.30266613401699 C 0.0 **** -0.24
8077 H 77.31058011888919 184.4807554376609 42.36361001675277 H 0.0 **** 0.06
8078 H 78.56937809340417 184.2242984835188 41.13233029708306 H 0.0 **** 0.06
8079 H 77.45235073890916 185.60309038686353 40.989732796945475 H 0.0 **** 0.06
8080 H 76.85811046434529 183.9448841284356 40.72750811889563 H 0.0 **** 0.06
8081 C 152.58440189557706 229.9382180509415 8.081567237709834 C 0.0 **** -0.24
8082 H 151.53117266850552 230.00223840911102 8.35563281512583 H 0.0 **** 0.06
8083 H 153.04148226213704 229.0902433609424 8.590220171746125 H 0.0 **** 0.06
8084 H 153.0927674915735 230.85658579030076 8.376137209569919 H 0.0 **** 0.06
8085 H 152.67140906011042 229.80549555248058 7.002685480297657 H 0.0 **** 0.06
8086 C 143.7181380256046 168.8702814833174 26.260164029837767 C 0.0 **** -0.24
8087 H 143.94431734922006 169.85297524235006 26.67273552033552 H 0.0 **** 0.06
8088 H 143.74801350013905 168.91717687902462 25.17102233413749 H 0.0 **** 0.06
8089 H 142.7244457837672 168.56115916913672 26.583042442567148 H 0.0 **** 0.06
8090 H 144.45521757335501 168.1491437858084 26.61336724521442 H 0.0 **** 0.06
8091 C 5.9812132835400575 129.05520223534893 307.52310502639676 C 0.0 **** -0.24
8092 H 5.9065111840121745 129.12098581328715 308.60817205816505 H 0.0 **** 0.06
8093 H 6.2207019906260825 130.0372090189389 307.1151501438679 H 0.0 **** 0.06
8094 H 5.0309476242339315 128.71215692721302 307.1142658868275 H 0.0 **** 0.06
8095 H 6.7674391820598885 128.34906631679348 307.25641560016675 H 0.0 **** 0.06
8096 C 10.672117423396543 183.36314424535476 71.60007079878153 C 0.0 **** -0.24
8097 H 10.499376377209558 183.05362254345437 72.63158144049001 H 0.0 **** 0.06
8098 H 10.033681901379396 182.78128556447757 70.93525585474262 H 0.0 **** 0.06
8099 H 11.717073282442769 183.19429376461233 71.3411671199529 H 0.0 **** 0.06
8100 H 10.437226817107486 184.42219505675456 71.49499401473719 H 0.0 **** 0.06
8101 C 53.758503229245406 111.3727584380162 151.10657838484593 C 0.0 **** -0.24
8102 H 52.91374842976404 111.53519139618217 151.77602757115005 H 0.0 **** 0.06
8103 H 53.425436148858296 110.81542548327874 150.23129977462884 H 0.0 **** 0.06
8104 H 54.530316860157 110.80626352528276 151.62796364021528 H 0.0 **** 0.06
8105 H 54.16328623118525 112.3350441286135 150.79379839983102 H 0.0 **** 0.06
8106 C 138.62477300074417 137.18881786057338 247.42440844353848 C 0.0 **** -0.24
8107 H 138.3513602254902 138.0840822950409 247.9829936182459 H 0.0 **** 0.06
8108 H 139.27970962011022 136.56596019632218 248.03441312276402 H 0.0 **** 0.06
8109 H 139.14302543835933 137.47602870681587 246.50971248911674 H 0.0 **** 0.06
8110 H 137.72389437603886 136.62991026189775 247.17104437769174 H 0.0 **** 0.06
8111 C 289.1466406342113 202.19904749228914 203.40552103293527 C 0.0 **** -0.24
8112 H 289.399979546125 203.15110651865155 203.87137332044722 H 0.0 **** 0.06
8113 H 288.16572796631164 201.87339008475448 203.7537636885295 H 0.0 **** 0.06
8114 H 289.8940028437921 201.45242639960117 203.67492968853168 H 0.0 **** 0.06
8115 H 289.12689775037217 202.31826916261906 202.32206555923096 H 0.0 **** 0.06
8116 C 14.696404269870484 24.03231423930154 276.2194521668782 C 0.0 **** -0.24
8117 H 13.932790723373188 23.30272172919689 276.4935150823528 H 0.0 **** 0.06
8118 H 15.226419784965074 23.68564712171886 275.33223076611057 H 0.0 **** 0.06
8119 H 15.40063346770134 24.14754367977349 277.04332762008335 H 0.0 **** 0.06
8120 H 14.222878710523347 24.991073468017134 276.00941732810657 H 0.0 **** 0.06
8121 C 297.8934890991232 3.694555929418243 147.92867110394567 C 0.0 **** -0.24
8122 H 297.8859622921991 2.811585954091555 148.56781014999967 H 0.0 **** 0.06
8123 H 296.96547001188253 3.7393782997101397 147.35956489741437 H 0.0 **** 0.06
8124 H 298.738465466337 3.6382044216085916 147.24206073512354 H 0.0 **** 0.06
8125 H 297.9862942557886 4.589087679069522 148.54521834903846 H 0.0 **** 0.06
8126 C 96.83879674726904 105.16495305941226 73.06611113633423 C 0.0 **** -0.24
8127 H 96.43758504179686 105.39191604776295 72.07774919613439 H 0.0 **** 0.06
8128 H 97.89623478091139 104.91498913516597 72.98096895736074 H 0.0 **** 0.06
8129 H 96.2978227342519 104.3195754559865 73.49184835212051 H 0.0 **** 0.06
8130 H 96.72107039716497 106.03497427218167 73.71240127821855 H 0.0 **** 0.06
8131 C 221.77535115578223 7.558522404537328 179.45708719226946 C 0.0 **** -0.24
8132 H 222.75423697397878 7.082495273116166 179.4057932151439 H 0.0 **** 0.06
8133 H 221.72824009188105 8.19875981741383 180.33898512326812 H 0.0 **** 0.06
8134 H 221.00184008669817 6.792815659546534 179.52235709460643 H 0.0 **** 0.06
8135 H 221.61627893761082 8.1598521620095 178.56236159236653 H 0.0 **** 0.06
8136 C 281.59517885055715 308.4972696232919 292.26153203717934 C 0.0 **** -0.24
8137 H 281.13553032399864 308.5101595362695 293.2489551605993 H 0.0 **** 0.06
8138 H 280.81708983763315 308.5218376594344 291.49765491619974 H 0.0 **** 0.06
8139 H 282.1878613431267 307.5891424874663 292.1485323868505 H 0.0 **** 0.06
8140 H 282.241401680931 309.36860247708165 292.1498921397791 H 0.0 **** 0.06
8141 C 115.28858974958061 2.4939031607492836 288.99562555151925 C 0.0 **** -0.24
8142 H 114.37191378802433 2.1993150454824786 289.50563081585165 H 0.0 **** 0.06
8143 H 115.93143885331804 3.0383234560293033 289.68847974182586 H 0.0 **** 0.06
8144 H 115.04261797292125 3.134219702445961 288.1480743938739 H 0.0 **** 0.06
8145 H 115.80796031971624 1.6046374037492654 288.6401245403776 H 0.0 **** 0.06
8146 C 200.76773188660627 293.19596289219703 160.60918548650272 C 0.0 **** -0.24
8147 H 200.59356826244687 293.4429347001401 159.56206022815132 H 0.0 **** 0.06
8148 H 200.03031115084713 292.4629641030505 160.93743811297043 H 0.0 **** 0.06
8149 H 200.6787076710437 294.09769375002384 161.2152081758059 H 0.0 **** 0.06
8150 H 201.76953330916683 292.780093611624 160.72277689141185 H 0.0 **** 0.06
8151 C 105.19737950870368 56.43909693388963 60.696117539870585 C 0.0 **** -0.24
8152 H 104.55487286840508 57.22272321528098 60.29462853862901 H 0.0 **** 0.06
8153 H 105.28363483691996 56.55743017068417 61.77626966511764 H 0.0 **** 0.06
8154 H 106.18611681402959 56.51098879983658 60.242844497249564 H 0.0 **** 0.06
8155 H 104.76428213219867 55.464691927340226 60.47016202305153 H 0.0 **** 0.06
8156 C 272.3533644141811 91.6487254076016 290.58336229476004 C 0.0 **** -0.24
8157 H 272.74178445479674 91.66288221467187 291.6020692251865 H 0.0 **** 0.06
8158 H 271.612398487267 92.43934714795063 290.46586289920157 H 0.0 **** 0.06
8159 H 271.8908300136353 90.68272041669394 290.3852546777811 H 0.0 **** 0.06
8160 H 273.1719566220756 91.81031214662926 289.88150199806404 H 0.0 **** 0.06
8161 C 306.72401623493283 159.06429895061922 158.75423197325574 C 0.0 **** -0.24
8162 H 306.31876304977914 160.06659552364232 158.89164297647204 H 0.0 **** 0.06
8163 H 307.1323808448341 158.70479019529336 159.69881185382815 H 0.0 **** 0.06
8164 H 307.5145397348758 159.09255845131213 158.0035860170812 H 0.0 **** 0.06
8165 H 305.931739131364 158.39365872195833 158.4218917500761 H 0.0 **** 0.06
8166 C 18.96828763455528 213.41751385427307 250.09011720737954 C 0.0 **** -0.24
8167 H 20.051671774263014 213.5430421705351 250.08219230567832 H 0.0 **** 0.06
8168 H 18.726386216732863 212.3573003154478 250.01324518528253 H 0.0 **** 0.06
8169 H 18.535267691167633 213.951980333548 249.2448724742778 H 0.0 **** 0.06
8170 H 18.562905076909715 213.81726993505362 251.01901946424516 H 0.0 **** 0.06
8171 C 134.868365263505 223.06754258215375 36.86392489216615 C 0.0 **** -0.24
8172 H 134.832555792872 224.0513610111749 37.33127200961178 H 0.0 **** 0.06
8173 H 134.2475721292657 222.3732101754331 37.43167197593391 H 0.0 **** 0.06
8174 H 135.8975145870917 222.7082707287019 36.85160595337226 H 0.0 **** 0.06
8175 H 134.49507439660778 223.13687318918778 35.84226274406734 H 0.0 **** 0.06
8176 C 209.68874994978432 88.77974726595323 38.45061940793812 C 0.0 **** -0.24
8177 H 210.346273750283 89.42281809751603 37.86559145351174 H 0.0 **** 0.06
8178 H 209.88691707655215 87.73698151408541 38.2011785734432 H 0.0 **** 0.06
8179 H 208.65034681099684 89.01833471100633 38.22108444020995 H 0.0 **** 0.06
8180 H 209.8736874887097 88.94131825519321 39.51165110540791 H 0.0 **** 0.06
8181 C 240.42645910510598 108.76894657539782 159.71248244532865 C 0.0 **** -0.24
8182 H 240.7754460804317 109.8001690879108 159.64901926072315 H 0.0 **** 0.06
8183 H 240.63774965631896 108.25607181551737 158.77397664605235 H 0.0 **** 0.06
8184 H 239.3533836760003 108.76006141228069 159.89844620116912 H 0.0 **** 0.06
8185 H 240.94182921702583 108.26151197193155 160.52796703802568 H 0.0 **** 0.06
8186 C 184.030178854999 27.099658343980934 302.18039594723314 C 0.0 **** -0.24
8187 H 183.7922248609152 27.147544595060765 303.243511255289 H 0.0 **** 0.06
8188 H 184.0809640484078 28.108960716657975 301.77388035407733 H 0.0 **** 0.06
8189 H 183.25545543117477 26.53680690715555 301.66016501342284 H 0.0 **** 0.06
8190 H 184.99224063240962 26.603692118640822 302.0458485701872 H 0.0 **** 0.06
8191 C 77.2873227118967 226.31368813448887 273.38818867678106 C 0.0 **** -0.24
8192 H 78.19692379487961 226.61281846609057 272.86798365793834 H 0.0 **** 0.06
8193 H 76.65784725917072 227.18942076915155 273.5514962536447 H 0.0 **** 0.06
8194 H 77.54724624046241 225.86937629123958 274.3484569156712 H 0.0 **** 0.06
8195 H 76.7467326755798 225.58523338320975 272.7842586843799 H 0.0 **** 0.06
8196 C 299.10917476573564 89.67505715293865 121.04635537104235 C 0.0 **** -0.24
8197 H 300.064119245397 90.15871896784554 121.2517492346312 H 0.0 **** 0.06
8198 H 298.9900997689876 89.54903138608259 119.96993119624102 H 0.0 **** 0.06
8199 H 298.29830013939386 90.29328563368696 121.4320239301936 H 0.0 **** 0.06
8200 H 299.0851478393039 88.69936478084477 121.53153415366279 H 0.0 **** 0.06
8201 C 266.38014377397394 210.12365608820028 271.93601763862523 C 0.0 **** -0.24
8202 H 265.7021098369069 209.88637803818148 272.75575872986883 H 0.0 **** 0.06
8203 H 266.07363816162075 211.06003573352666 271.469076718984 H 0.0 **** 0.06
8204 H 266.3497551817913 209.3225003066546 271.19603770160154 H 0.0 **** 0.06
8205 H 267.3951214557002 210.22312688273522 272.32068270891136 H 0.0 **** 0.06
8206 C 235.00993468999832 268.97849022362874 30.035701719617066 C 0.0 **** -0.24
8207 H 235.67599939206582 269.03495780206634 29.175057441967397 H 0.0 **** 0.06
8208 H 235.52817371297078 269.3490890247804 30.92084362880388 H 0.0 **** 0.06
8209 H 234.71194047003695 267.94251105683065 30.19592019253605 H 0.0 **** 0.06
8210 H 234.1253299130624 269.5868330175139 29.85010867298365 H 0.0 **** 0.06
8211 C 77.74469520216698 1.4927155627447064 215.53787745874803 C 0.0 **** -0.24
8212 H 76.71695332749462 1.1294567927843673 215.52064212131364 H 0.0 **** 0.06
8213 H 77.74420942986933 2.5797475618261956 215.61302094323133 H 0.0 **** 0.06
8214 H 78.25196134715125 1.1914287784698558 214.62145742356404 H 0.0 **** 0.06
8215 H 78.26476323101181 1.0684917231208146 216.3968173458843 H 0.0 **** 0.06
8216 C 178.43456097345654 47.2628582317692 304.9057543963482 C 0.0 **** -0.24
8217 H 178.298426841254 46.8278696580129 303.9151425687381 H 0.0 **** 0.06
8218 H 179.45339714522703 47.07685017881997 305.2469584606877 H 0.0 **** 0.06
8219 H 177.73004966741883 46.807091710583734 305.60204029398227 H 0.0 **** 0.06
8220 H 178.255946510338 48.336490429589844 304.8590091149973 H 0.0 **** 0.06
8221 C 13.730826275303912 73.5136484830673 228.7508475541947 C 0.0 **** -0.24
8222 H 14.227624125714712 72.82999598614734 229.4390070616109 H 0.0 **** 0.06
8223 H 14.449142420079752 73.87022352204076 228.01237446103863 H 0.0 **** 0.06
8224 H 13.329881102743471 74.36090483003767 229.3074174080915 H 0.0 **** 0.06
8225 H 12.91807002888794 72.9934842079326 228.24452477370514 H 0.0 **** 0.06
8226 C 56.37103584525897 201.52220179570014 22.780750034322097 C 0.0 **** -0.24
8227 H 57.140543331303036 201.97090759821225 23.408099758877626 H 0.0 **** 0.06
8228 H 56.62318921279834 200.48032814086122 22.58537267454477 H 0.0 **** 0.06
8229 H 56.310242478253116 202.06535338021803 21.837520012529666 H 0.0 **** 0.06
8230 H 55.40906541590434 201.57430164383794 23.291342682117175 H 0.0 **** 0.06
8231 C 100.80690304113617 188.50154809373169 55.29765096148651 C 0.0 **** -0.24
8232 H 101.32607282328414 189.03761799626483 54.503022653455616 H 0.0 **** 0.06
8233 H 100.70913526418138 189.14968546147952 56.16866402979758 H 0.0 **** 0.06
8234 H 101.37536370365339 187.61174386930617 55.568053008295635 H 0.0 **** 0.06
8235 H 99.81592993806672 188.2078676675788 54.950369419029016 H 0.0 **** 0.06
8236 C 256.14487681727985 49.52178598498142 60.51234200926959 C 0.0 **** -0.24
8237 H 255.65471538558882 48.5578626606644 60.64678137426421 H 0.0 **** 0.06
8238 H 255.68932008403453 50.25695960577161 61.1766033774237 H 0.0 **** 0.06
8239 H 256.03048068483116 49.84610503498243 59.47815342524069 H 0.0 **** 0.06
8240 H 257.2044925038041 49.427006533653184 60.748186871874026 H 0.0 **** 0.06
8241 C 76.03204271851749 239.71349154843685 140.69471216630407 C 0.0 **** -0.24
8242 H 76.40837276158538 240.09315922060307 141.64446713786484 H 0.0 **** 0.06
8243 H 75.82022423136812 238.6474382513328 140.7884919898943 H 0.0 **** 0.06
8244 H 76.78315694324394 239.86727777195733 139.92030686788726 H 0.0 **** 0.06
8245 H 75.11861458284201 240.2444916637461 140.427199049959 H 0.0 **** 0.06
8246 C 135.5648990826865 52.428400865377284 158.84827221118957 C 0.0 **** -0.24
8247 H 136.4243076700701 53.09886847562785 158.8505989118384 H 0.0 **** 0.06
8248 H 135.49276199036035 51.92854920019272 159.81479531371087 H 0.0 **** 0.06
8249 H 135.68594978231047 51.68435807187575 158.06166341733774 H 0.0 **** 0.06
8250 H 134.6564811047181 53.003918951786375 158.66913242942496 H 0.0 **** 0.06
8251 C 160.86274683713827 303.1051666160363 92.98670280450094 C 0.0 **** -0.24
8252 H 160.6439296774725 303.93156763348094 93.66238894143996 H 0.0 **** 0.06
8253 H 161.9055853601518 302.8058931390931 93.10560429680282 H 0.0 **** 0.06
8254 H 160.69091813654154 303.42188496779943 91.9584247637228 H 0.0 **** 0.06
8255 H 160.21335701059922 302.26219183365436 93.22101395532965 H 0.0 **** 0.06
8256 C 175.32722491593546 290.97174690013804 212.04998089671312 C 0.0 **** -0.24
8257 H 176.28751149652823 291.48281261847876 212.12578900338792 H 0.0 **** 0.06
8258 H 174.97076586052896 290.7216670801826 213.04971955246998 H 0.0 **** 0.06
8259 H 175.44706532266048 290.0585041135427 211.46716940118233 H 0.0 **** 0.06
8260 H 174.60657254986342 291.6243353210207 211.55891790454774 H 0.0 **** 0.06
8261 C 285.6822392608281 109.989401375753 235.9227654830467 C 0.0 **** -0.24
8262 H 285.39147704725417 109.4727727573669 235.00805374924397 H 0.0 **** 0.06
8263 H 286.76806060047517 109.97925306674256 236.01601985990717 H 0.0 **** 0.06
8264 H 285.23790029782975 109.48434024850098 236.7813570628158 H 0.0 **** 0.06
8265 H 285.32887015035726 111.02017969222766 235.88470385889227 H 0.0 **** 0.06
8266 C 173.1799518755176 132.99737359789532 175.23810505947432 C 0.0 **** -0.24
8267 H 174.1956627180203 132.6355172261842 175.07809630625604 H 0.0 **** 0.06
8268 H 172.5952781316019 132.22764987783486 175.7431321514237 H 0.0 **** 0.06
8269 H 172.72251936654936 133.2291709867675 174.2761217844269 H 0.0 **** 0.06
8270 H 173.20751794572055 133.89633766652503 175.8540905025426 H 0.0 **** 0.06
8271 C 40.86854697312836 213.82427905366117 155.19599806260413 C 0.0 **** -0.24
8272 H 40.27480341582333 214.7379464461153 155.2212137998264 H 0.0 **** 0.06
8273 H 41.192912946055316 213.62993796364475 154.17249202095888 H 0.0 **** 0.06
8274 H 40.265709557691906 212.98910446626508 155.55110058895076 H 0.0 **** 0.06
8275 H 41.74181998811329 213.94102945554135 155.83815297937946 H 0.0 **** 0.06
8276 C 103.10933229032437 293.1636780177654 198.66689925017982 C 0.0 **** -0.24
8277 H 104.1774229039151 293.0105010521147 198.8161426799299 H 0.0 **** 0.06
8278 H 102.95434124472499 293.8698737227055 197.85074684078103 H 0.0 **** 0.06
8279 H 102.66873732933624 293.56260992541195 199.58092100379054 H 0.0 **** 0.06
8280 H 102.63673284846243 292.2131099583786 198.4200683751787 H 0.0 **** 0.06
8281 C 251.50261511686887 178.82962091251432 8.678553123195016 C 0.0 **** -0.24
8282 H 251.21086180316001 177.7999714980541 8.468895205696597 H 0.0 **** 0.06
8283 H 252.57562828025365 178.942268793555 8.51727521136553 H 0.0 **** 0.06
8284 H 251.2638390602753 179.07164496468891 9.714190464667212 H 0.0 **** 0.06
8285 H 250.96239620741946 179.50238112603967 8.01287484315587 H 0.0 **** 0.06
8286 C 103.8954555342041 53.832429776824426 162.88792170332198 C 0.0 **** -0.24
8287 H 103.38772005635462 54.70955579198673 163.28868221339297 H 0.0 **** 0.06
8288 H 104.88338033027574 53.74558253555409 163.3403656275451 H 0.0 **** 0.06
8289 H 103.99852417308477 53.934261634391476 161.80721754303528 H 0.0 **** 0.06
8290 H 103.31215648356991 52.939543193030545 163.11479197415446 H 0.0 **** 0.06
8291 C 289.6556263131738 149.62574454471354 276.33052484862037 C 0.0 **** -0.24
8292 H 290.02746806147934 149.3214775498356 275.3524508958165 H 0.0 **** 0.06
8293 H 290.49817497208323 149.80042734516775 277.0003845586292 H 0.0 **** 0.06
8294 H 289.0228123871278 148.83747541369507 276.73928476060627 H 0.0 **** 0.06
8295 H 289.0752966161784 150.54204489774804 276.22979526657684 H 0.0 **** 0.06
8296 C 294.1518408532635 30.593086475792177 132.41966819908166 C 0.0 **** -0.24
8297 H 294.1369378719554 31.51436406383573 133.0015933271237 H 0.0 **** 0.06
8298 H 294.0878056018011 29.7372561052878 133.09292017356256 H 0.0 **** 0.06
8299 H 295.0787344017549 30.53879172518242 131.84879274926467 H 0.0 **** 0.06
8300 H 293.302584181668 30.581389275894907 131.73546527776892 H 0.0 **** 0.06
8301 C 163.06830431608114 302.0032021652481 264.57915161014944 C 0.0 **** -0.24
8302 H 162.67449351931043 303.0149598223675 264.47785080264646 H 0.0 **** 0.06
8303 H 162.73862298444715 301.57920207254745 265.52753997470285 H 0.0 **** 0.06
8304 H 164.15722987505046 302.03299379224364 264.5526764798272 H 0.0 **** 0.06
8305 H 162.7013483009519 301.38727038097556 263.7582827601451 H 0.0 **** 0.06
8306 C 247.4097651839891 73.46587235156574 16.556589582515244 C 0.0 **** -0.24
8307 H 247.49950950114126 73.71464582528085 15.49964631932039 H 0.0 **** 0.06
8308 H 247.1463368810742 72.41336274105655 16.660917904357177 H 0.0 **** 0.06
8309 H 246.63235899599397 74.08184074301707 17.00987085796072 H 0.0 **** 0.06
8310 H 248.3602556571684 73.65443284155901 17.056032425518055 H 0.0 **** 0.06
8311 C 204.5859464118825 76.03382220007964 300.8061264995279 C 0.0 **** -0.24
8312 H 205.54626627484123 76.04561888335238 301.32217102425597 H 0.0 **** 0.06
8313 H 204.02190389697677 76.9298646070377 301.0672747358799 H 0.0 **** 0.06
8314 H 204.02400433375482 75.14942646502823 301.10504894922406 H 0.0 **** 0.06
8315 H 204.75313458152436 76.01110665747083 299.7285451907801 H 0.0 **** 0.06
8316 C 257.3370136305001 38.23299587622961 287.94324410253546 C 0.0 **** -0.24
8317 H 257.56417782434755 37.26946488773143 287.4868092066348 H 0.0 **** 0.06
8318 H 256.5648347365787 38.102802954168425 288.7016245544786 H 0.0 **** 0.06
8319 H 256.9823964654953 38.92279031213738 287.1772534672424 H 0.0 **** 0.06
8320 H 258.2370413519899 38.636203931730506 288.4061390247893 H 0.0 **** 0.06
8321 C 56.436988065571654 269.71737894699754 293.4622227374209 C 0.0 **** -0.24
8322 H 57.3195549891943 269.79264854077513 292.82602350047466 H 0.0 **** 0.06
8323 H 56.4413747858421 270.53248257709606 294.1855305394716 H 0.0 **** 0.06
8324 H 56.44950267449525 268.76345651931865 293.9889624588398 H 0.0 **** 0.06
8325 H 55.53924332448523 269.782056939936 292.84750533357607 H 0.0 **** 0.06
8326 C 120.21670388630008 208.33356147754293 81.4985744968105 C 0.0 **** -0.24
8327 H 121.04713939163665 207.9478277583601 80.90788192378221 H 0.0 **** 0.06
8328 H 119.50413072807251 208.8319211455037 80.84096101792815 H 0.0 **** 0.06
8329 H 120.59204983410206 209.04505402380943 82.23303560468386 H 0.0 **** 0.06
8330 H 119.72189729019948 207.5083555501108 82.01129563186754 H 0.0 **** 0.06
8331 C 141.29097787203781 66.51191268594613 285.8091342962267 C 0.0 **** -0.24
8332 H 140.43988607733343 65.93065868059082 286.1655005308444 H 0.0 **** 0.06
8333 H 141.8393628488277 66.91121136256294 286.6624366077616 H 0.0 **** 0.06
8334 H 140.93440342361697 67.33349131214774 285.1883754293281 H 0.0 **** 0.06
8335 H 141.9477735069614 65.87068152552274 285.22172009773766 H 0.0 **** 0.06
8336 C 222.53414300679236 84.48465418700604 88.44000136166943 C 0.0 **** -0.24
8337 H 222.80258638180715 85.49816613099293 88.73990976226915 H 0.0 **** 0.06
8338 H 221.53787992595727 84.4885007923674 87.99730572211755 H 0.0 **** 0.06
8339 H 222.54029107935753 83.83465935713377 89.31465287500504 H 0.0 **** 0.06
8340 H 223.255343981501 84.11907681729159 87.70939703076778 H 0.0 **** 0.06
8341 C 293.0725680873171 282.15738612662653 94.42085380867081 C 0.0 **** -0.24
8342 H 293.7336644199369 281.7685074651569 93.64620009457241 H 0.0 **** 0.06
8343 H 292.07763624907096 281.73052138560416 94.29698501880375 H 0.0 **** 0.06
8344 H 293.0156636142068 283.2431249533815 94.33708964344959 H 0.0 **** 0.06
8345 H 293.46497965402443 281.88852384262157 95.40092195868061 H 0.0 **** 0.06
8346 C 102.29911489066961 310.7900330138788 225.2605998577941 C 0.0 **** -0.24
8347 H 102.97740221753133 310.91122993120405 226.10456547001317 H 0.0 **** 0.06
8348 H 101.36103767952795 310.35643913332177 225.6081381228117 H 0.0 **** 0.06
8349 H 102.75273187667847 310.1303910862223 224.5209928632517 H 0.0 **** 0.06
8350 H 102.10508378086203 311.7629763276996 224.80832826939377 H 0.0 **** 0.06
8351 C 13.495903856452003 47.79225374916351 223.2725199311048 C 0.0 **** -0.24
8352 H 12.823349347673613 47.12532207136158 222.73291459319282 H 0.0 **** 0.06
8353 H 14.410564856003774 47.256171477500004 223.52827842988296 H 0.0 **** 0.06
8354 H 13.010175751500853 48.138156302610014 224.18482195373684 H 0.0 **** 0.06
8355 H 13.739490584861286 48.64837386483188 222.64419183321831 H 0.0 **** 0.06
8356 C 162.00823771700078 59.08992306731258 198.7575183821666 C 0.0 **** -0.24
8357 H 162.04704339156694 59.265091168653925 197.68236415786538 H 0.0 **** 0.06
8358 H 162.0155413065478 58.01631079018014 198.95101953224975 H 0.0 **** 0.06
8359 H 161.09725216893497 59.52629504657864 199.16469422610135 H 0.0 **** 0.06
8360 H 162.8749733486672 59.550537219024534 199.2313498892741 H 0.0 **** 0.06
8361 C 101.93337583597688 196.2745792461281 244.73038599512412 C 0.0 **** -0.24
8362 H 101.38889359569825 195.92500419696677 245.606824081434 H 0.0 **** 0.06
8363 H 102.80910578065851 195.64437842382551 244.57057565684508 H 0.0 **** 0.06
8364 H 102.25055294694198 197.30522833342894 244.88794388001 H 0.0 **** 0.06
8365 H 101.28455923292418 196.22341983627956 243.85532594817448 H 0.0 **** 0.06
8366 C 43.6691414616825 238.77706541840877 26.995233655943707 C 0.0 **** -0.24
8367 H 43.82964188973173 238.27236652154693 27.94814917579106 H 0.0 **** 0.06
8368 H 44.53785710923103 239.3927923813062 26.760830619191722 H 0.0 **** 0.06
8369 H 42.78293488151044 239.40817274028444 27.063825176197298 H 0.0 **** 0.06
8370 H 43.526758784745 238.03473453666828 26.21048950592987 H 0.0 **** 0.06
8371 C 138.75385409766787 13.396076660716844 221.64879380539406 C 0.0 **** -0.24
8372 H 139.23524768483193 13.882966403443575 222.49718813866778 H 0.0 **** 0.06
8373 H 138.0513456342889 14.087686415898744 221.18437249582837 H 0.0 **** 0.06
8374 H 138.21900157893447 12.510986525743235 221.99326816753404 H 0.0 **** 0.06
8375 H 139.51165716204036 13.103153076300373 220.9215272495553 H 0.0 **** 0.06
8376 C 208.57263893109547 312.8356089374218 290.07882814737013 C 0.0 **** -0.24
8377 H 209.20786441142778 311.95199239908925 290.0055768043393 H 0.0 **** 0.06
8378 H 208.94250451166744 313.4839517299183 290.87367242732523 H 0.0 **** 0.06
8379 H 207.55069845209425 312.5288629692046 290.3047483203844 H 0.0 **** 0.06
8380 H 208.58916720678883 313.37404618243784 289.1323459817537 H 0.0 **** 0.06
8381 C 249.578896379535 276.90403886392204 250.35082814671512 C 0.0 **** -0.24
8382 H 249.63930193018558 275.9665722410587 249.79855842305562 H 0.0 **** 0.06
8383 H 250.15157183536417 276.81859912253094 251.27488833280415 H 0.0 **** 0.06
8384 H 248.53709653585534 277.1204531497568 250.58576066737362 H 0.0 **** 0.06
8385 H 249.98978550419145 277.7103490889 249.74160379775736 H 0.0 **** 0.06
8386 C 50.954943809138626 141.94012853287336 249.16132234069389 C 0.0 **** -0.24
8387 H 51.89272557722916 141.39362335584798 249.0626724767527 H 0.0 **** 0.06
8388 H 51.09479536919227 142.96481893637844 248.81436200248854 H 0.0 **** 0.06
8389 H 50.647506254361275 141.94869987364234 250.20683993028854 H 0.0 **** 0.06
8390 H 50.186483191705406 141.45422308166997 248.5602902942406 H 0.0 **** 0.06
8391 C 102.65269905329129 129.63463228923894 273.71513067152466 C 0.0 **** -0.24
8392 H 102.2496733786142 128.64131246547868 273.9161192024335 H 0.0 **** 0.06
8393 H 103.30307024555373 129.93601887840362 274.5365147399273 H 0.0 **** 0.06
8394 H 101.83305759379462 130.34611472872558 273.62041023489934 H 0.0 **** 0.06
8395 H 103.2248416459872 129.61266025515081 272.78780471386176 H 0.0 **** 0.06
8396 C 39.33473595135919 23.391483138231933 100.81311762523427 C 0.0 **** -0.24
8397 H 38.88230998625238 23.629339508799546 101.7759921987506 H 0.0 **** 0.06
8398 H 39.91411436367409 24.245771628051756 100.46363918628757 H 0.0 **** 0.06
8399 H 38.55191757606093 23.162184151029976 100.09080764243231 H 0.0 **** 0.06
8400 H 39.99058171742766 22.528205816665178 100.9242254352489 H 0.0 **** 0.06
8401 C 19.00987766955963 97.89945888413814 82.43886843550294 C 0.0 **** -0.24
8402 H 18.678141676808977 97.88409521666529 81.40051130020049 H 0.0 **** 0.06
8403 H 18.14415270344115 97.8327457727643 83.09765898871308 H 0.0 **** 0.06
8404 H 19.545384044565225 98.82886933034243 82.63478550620405 H 0.0 **** 0.06
8405 H 19.67169485971266 97.05370338403799 82.62093980444465 H 0.0 **** 0.06
8406 C 193.48124150026769 123.87254504773279 284.8095857401712 C 0.0 **** -0.24
8407 H 193.82556125777091 124.55590180463204 285.5851860191603 H 0.0 **** 0.06
8408 H 192.4983636688928 123.48570476344833 285.07578135624493 H 0.0 **** 0.06
8409 H 194.18466677749979 123.04561109569684 284.7164435657303 H 0.0 **** 0.06
8410 H 193.41800495753301 124.40354980256393 283.8595191940006 H 0.0 **** 0.06
8411 C 216.0462815498208 139.0714464111779 82.9965999811283 C 0.0 **** -0.24
8412 H 216.73952937926038 139.5464576602218 82.30351693891728 H 0.0 **** 0.06
8413 H 215.70694258609268 139.80286927326136 83.72913394505585 H 0.0 **** 0.06
8414 H 216.54831954745686 138.2502277665123 83.50753650732722 H 0.0 **** 0.06
8415 H 215.18860940125924 138.68528954168613 82.44475062409026 H 0.0 **** 0.06
8416 C 154.6037779279519 180.53700044673172 12.903118892672396 C 0.0 **** -0.24
8417 H 154.75335671228754 179.5395385546368 12.489252593936698 H 0.0 **** 0.06
8418 H 154.37141323775103 181.23302387644412 12.096974744943878 H 0.0 **** 0.06
8419 H 155.51133129852246 180.85936049463658 13.41097046274399 H 0.0 **** 0.06
8420 H 153.7776367044646 180.51490474055117 13.613624210929814 H 0.0 **** 0.06
8421 C 259.79941858067826 178.08895279101858 257.6055220921036 C 0.0 **** -0.24
8422 H 260.884818633396 177.99103963510453 257.5958221991494 H 0.0 **** 0.06
8423 H 259.4669143241113 178.53835386994427 256.66957020152614 H 0.0 **** 0.06
8424 H 259.4991841913684 178.72343905854012 258.43984147992546 H 0.0 **** 0.06
8425 H 259.3470318391326 177.1040929062164 257.71768085983615 H 0.0 **** 0.06
8426 C 134.77031061048424 259.3075014759471 188.50659799868197 C 0.0 **** -0.24
8427 H 134.10859014544153 259.81907315468237 189.2061891633458 H 0.0 **** 0.06
8428 H 134.37963309340537 258.3103807567861 188.30132329706112 H 0.0 **** 0.06
8429 H 135.76591144940988 259.22569582535465 188.94204392231535 H 0.0 **** 0.06
8430 H 134.8253117431394 259.8758652349204 187.57770518115956 H 0.0 **** 0.06
8431 C 47.78714399938147 139.3494937134125 277.3980626585974 C 0.0 **** -0.24
8432 H 46.83717106696767 138.8164090602949 277.4314621887725 H 0.0 **** 0.06
8433 H 48.569665159482355 138.6738359346503 277.0513617006809 H 0.0 **** 0.06
8434 H 48.03550082431056 139.71199945709375 278.39558349718516 H 0.0 **** 0.06
8435 H 47.70527354310869 140.19302877319709 276.71296618434445 H 0.0 **** 0.06
8436 C 300.2198834805704 107.19553043362563 250.1308266317432 C 0.0 **** -0.24
8437 H 301.01817361514486 107.47489639087036 249.4436578968154 H 0.0 **** 0.06
8438 H 299.4897377927174 108.0037796857871 250.18688711002164 H 0.0 **** 0.06
8439 H 300.6393131299594 107.01544301001923 251.12065926360498 H 0.0 **** 0.06
8440 H 299.7321376464363 106.28893384074885 249.77178071291928 H 0.0 **** 0.06
8441 C 265.10504949419663 145.3927358321187 172.71211880848318 C 0.0 **** -0.24
8442 H 264.5828071146746 146.3458163676453 172.63305720980088 H 0.0 **** 0.06
8443 H 264.5232454567646 144.6176457862186 172.21214497135503 H 0.0 **** 0.06
8444 H 265.2280249677596 145.13288954766747 173.76383468941924 H 0.0 **** 0.06
8445 H 266.0839604866496 145.47475676167684 172.24058176594735 H 0.0 **** 0.06
8446 C 229.92283662969203 71.052827742206 44.46969734557999 C 0.0 **** -0.24
8447 H 229.31622944258788 71.29919789374605 43.59792224760682 H 0.0 **** 0.06
8448 H 229.85134274116558 71.85857773119807 45.20033674324878 H 0.0 **** 0.06
8449 H 230.962601408367 70.92851408291983 44.16436035681812 H 0.0 **** 0.06
8450 H 229.56088761528824 70.12576464718691 44.912950403630475 H 0.0 **** 0.06
8451 C 248.1816045796107 314.0890748056984 76.65172415337733 C 0.0 **** -0.24
8452 H 248.33583997398352 315.07014078996406 76.20192160800079 H 0.0 **** 0.06
8453 H 248.66550395786095 314.0574441971074 77.62806028789828 H 0.0 **** 0.06
8454 H 248.61336294327987 313.32223869905226 76.00759570615273 H 0.0 **** 0.06
8455 H 247.11399586190393 313.9064526722459 76.76765139490436 H 0.0 **** 0.06
8456 C 80.54434993588492 211.68844801573505 217.78083448541105 C 0.0 **** -0.24
8457 H 79.9893775010556 210.75272582021034 217.85703110646335 H 0.0 **** 0.06
8458 H 81.61381823172206 211.4777772619692 217.78549795366325 H 0.0 **** 0.06
8459 H 80.29469335381185 212.32772072122688 218.62657223479462 H 0.0 **** 0.06
8460 H 80.2772367927729 212.1933525462225 216.85252778313463 H 0.0 **** 0.06
8461 C 117.97147409773652 190.5457085035174 102.00031887642967 C 0.0 **** -0.24
8462 H 117.63307092533896 189.66148902980024 101.45988334222335 H 0.0 **** 0.06
8463 H 118.95586518380193 190.35556301162563 102.42736715127435 H 0.0 **** 0.06
8464 H 117.26622196600306 190.77481510102353 102.79934262359706 H 0.0 **** 0.06
8465 H 118.02900644861012 191.38992752790074 101.31329659366068 H 0.0 **** 0.06
8466 C 31.076517094628997 212.19759002738775 6.769331316894323 C 0.0 **** -0.24
8467 H 32.10090357881697 212.5574661840452 6.6774518888268375 H 0.0 **** 0.06
8468 H 30.681172355118264 212.47461641969738 7.74692953074009 H 0.0 **** 0.06
8469 H 31.062185158066086 211.11314999633393 6.664566053180039 H 0.0 **** 0.06
8470 H 30.463180568558272 212.64688665620966 5.988517514933136 H 0.0 **** 0.06
8471 C 126.69222101580121 87.37239876683014 87.4084969909868 C 0.0 **** -0.24
8472 H 125.91125639121256 86.95557120001897 86.77209508406636 H 0.0 **** 0.06
8473 H 126.23651395088811 87.96494698193942 88.20155942990635 H 0.0 **** 0.06
8474 H 127.34726188279726 88.00649424044988 86.81120079812067 H 0.0 **** 0.06
8475 H 127.2728320646103 86.56165920959907 87.84808034850462 H 0.0 **** 0.06
8476 C 275.58515081594754 282.2598877308365 175.1487189202175 C 0.0 **** -0.24
8477 H 275.0830135027102 283.08503704495564 174.64229213951353 H 0.0 **** 0.06
8478 H 276.142060657451 281.67250405445395 174.4186653637608 H 0.0 **** 0.06
8479 H 274.84205870236576 281.626990911178 175.63487741372205 H 0.0 **** 0.06
8480 H 276.2712195852765 282.65607273601756 175.89708543040786 H 0.0 **** 0.06
8481 C 167.00926951302148 152.09331954402575 215.532936186837 C 0.0 **** -0.24
8482 H 166.2395235769436 152.79368005422776 215.85749388695115 H 0.0 **** 0.06
8483 H 167.9829853025347 152.58369677261442 215.56285426017126 H 0.0 **** 0.06
8484 H 166.79811235805 151.76805399797098 214.51402336794945 H 0.0 **** 0.06
8485 H 167.0165670293709 151.22866806021295 216.19681261292078 H 0.0 **** 0.06
8486 C 19.31589522741193 93.74940304944244 247.79939451070757 C 0.0 **** -0.24
8487 H 19.37350856578614 94.7087743985056 247.28642408061867 H 0.0 **** 0.06
8488 H 20.32258868156825 93.4027117592531 248.03414499835787 H 0.0 **** 0.06
8489 H 18.821366658529257 93.02257366211956 247.15462254455932 H 0.0 **** 0.06
8490 H 18.745882664410175 93.86336022395525 248.7214334416268 H 0.0 **** 0.06
8491 C 210.96113117329472 25.08896984252911 202.37798087703771 C 0.0 **** -0.24
8492 H 210.79401006324662 24.407875388857946 203.2118221240557 H 0.0 **** 0.06
8493 H 212.01252897950678 25.06003768094257 202.09052142479453 H 0.0 **** 0.06
8494 H 210.69290954096363 26.102350383678356 202.67717042571684 H 0.0 **** 0.06
8495 H 210.34374292538664 24.78561352735744 201.53193770361588 H 0.0 **** 0.06
8496 C 298.03707017750014 171.83246340544497 72.26760714555775 C 0.0 **** -0.24
8497 H 297.5695450799715 172.58879056310548 71.63756281275775 H 0.0 **** 0.06
8498 H 297.49030087299525 171.75368175418612 73.20688938531282 H 0.0 **** 0.06
8499 H 299.06984250243073 172.1179328748732 72.4707422300589 H 0.0 **** 0.06
8500 H 298.0196469928232 170.8712776453135 71.75449827385955 H 0.0 **** 0.06
8501 C 266.51887370854 166.22989575979562 216.3482829525794 C 0.0 **** -0.24
8502 H 266.84171814952424 166.93846381891763 217.1109323619993 H 0.0 **** 0.06
8503 H 266.0335283374351 166.7680345606188 215.53396553751637 H 0.0 **** 0.06
8504 H 265.8164297805434 165.52091876554323 216.78547569677733 H 0.0 **** 0.06
8505 H 267.38517582233584 165.69230003272446 215.96238421822343 H 0.0 **** 0.06
8506 C 73.11210979812628 283.9165857364194 23.85350738769546 C 0.0 **** -0.24
8507 H 73.77089616001291 283.47928665420943 23.103359141442724 H 0.0 **** 0.06
8508 H 72.8331655785235 284.925242568027 23.54904414292716 H 0.0 **** 0.06
8509 H 73.62940675810918 283.95565347937054 24.812298771652053 H 0.0 **** 0.06
8510 H 72.21539860251747 283.30453505643845 23.948908359266795 H 0.0 **** 0.06
8511 C 237.0460376681892 232.72335523402188 133.17519862946676 C 0.0 **** -0.24
8512 H 237.79330040994748 232.9030012304575 133.948104872479 H 0.0 **** 0.06
8513 H 237.0463808242663 233.5533076995817 132.46937065311775 H 0.0 **** 0.06
8514 H 236.06178514629661 232.63714252688894 133.6362069753496 H 0.0 **** 0.06
8515 H 237.2827153332182 231.7977659910002 132.64996573991493 H 0.0 **** 0.06
8516 C 260.90021320019207 42.947709151777474 118.95207465124264 C 0.0 **** -0.24
8517 H 259.9540119022058 43.3823249553773 118.63005049698893 H 0.0 **** 0.06
8518 H 260.941405273239 41.90139455743943 118.64665634766664 H 0.0 **** 0.06
8519 H 260.97951257004024 43.0138565054888 120.03656876444745 H 0.0 **** 0.06
8520 H 261.72509571623743 43.492834393450465 118.49356221486673 H 0.0 **** 0.06
8521 C 243.79027563383138 296.96588842898643 149.94596272086676 C 0.0 **** -0.24
8522 H 243.12975349219928 296.9509077989116 149.07899649818773 H 0.0 **** 0.06
8523 H 243.74868328056564 297.9486567969319 150.41669381797027 H 0.0 **** 0.06
8524 H 244.81154268275597 296.7574498720306 149.62770444370744 H 0.0 **** 0.06
8525 H 243.46912237945423 296.2067035355741 150.65947112094233 H 0.0 **** 0.06
8526 C 76.1535777013138 168.00904511803105 25.12421171490726 C 0.0 **** -0.24
8527 H 77.06904852533026 167.92273716925035 24.53898828925483 H 0.0 **** 0.06
8528 H 75.79346711390662 167.01327373690918 25.382448177329366 H 0.0 **** 0.06
8529 H 75.39650382288255 168.5301736115553 24.53832129398438 H 0.0 **** 0.06
8530 H 76.35768661504787 168.57026246793316 26.036651297705816 H 0.0 **** 0.06
8531 C 47.75968054181024 310.8749905923254 132.1098773202384 C 0.0 **** -0.24
8532 H 48.17922167637124 311.5022859752539 131.32364701875392 H 0.0 **** 0.06
8533 H 47.16747340054687 311.489906440838 132.78865604533254 H 0.0 **** 0.06
8534 H 48.567287163515516 310.3965625738723 132.66302605353107 H 0.0 **** 0.06
8535 H 47.12299227256432 310.11083843550375 131.6628349467704 H 0.0 **** 0.06
8536 C 162.02387893253314 92.97079198686737 148.53315676997732 C 0.0 **** -0.24
8537 H 162.43379934833007 92.01711873471501 148.86603952988753 H 0.0 **** 0.06
8538 H 161.77170486431532 93.579906600101 149.4014349391618 H 0.0 **** 0.06
8539 H 161.12710604300923 92.79277957391722 147.94061199493956 H 0.0 **** 0.06
8540 H 162.76368287904478 93.49158772823347 147.92565593527956 H 0.0 **** 0.06
8541 C 251.9135315245573 122.33515236571094 172.24686859889488 C 0.0 **** -0.24
8542 H 252.25739234253416 123.31862377708762 171.92748940747697 H 0.0 **** 0.06
8543 H 252.74018189193617 121.79250586927617 172.7057436376814 H 0.0 **** 0.06
8544 H 251.54895913863052 121.77927658748891 171.382193254517 H 0.0 **** 0.06
8545 H 251.10692478298162 122.44963252910344 172.9709398703257 H 0.0 **** 0.06
8546 C 8.79619007293951 170.0960280209111 218.89523507292586 C 0.0 **** -0.24
8547 H 7.885464608755541 169.5564818778119 218.63684499055967 H 0.0 **** 0.06
8548 H 9.586194256529765 169.8332081724663 218.19191973404656 H 0.0 **** 0.06
8549 H 9.102984937237608 169.8270100775208 219.90610776939332 H 0.0 **** 0.06
8550 H 8.60778608237571 171.1689284780993 218.8471944762956 H 0.0 **** 0.06
8551 C 82.43558156201411 171.83637844088656 282.8896143586559 C 0.0 **** -0.24
8552 H 82.88596873084288 170.99720412714981 283.4194532189324 H 0.0 **** 0.06
8553 H 81.3561104623214 171.82464911300235 283.0412155426194 H 0.0 **** 0.06
8554 H 82.6544494830255 171.7535599909205 281.8248034413525 H 0.0 **** 0.06
8555 H 82.84710624754442 172.77062843517228 283.27289198089255 H 0.0 **** 0.06
8556 C 41.02520667346528 26.769118957931937 18.725004289263083 C 0.0 **** -0.24
8557 H 40.26377078097664 26.04439772887352 19.01347070367767 H 0.0 **** 0.06
8558 H 40.56001317917975 27.744346348679557 18.575840263942027 H 0.0 **** 0.06
8559 H 41.500453330582445 26.447076758549684 17.797902465784787 H 0.0 **** 0.06
8560 H 41.775431667746716 26.840013267739522 19.512305885193413 H 0.0 **** 0.06
8561 C 120.24700250299509 218.3283512641404 24.454076759857315 C 0.0 **** -0.24
8562 H 119.3673434709005 218.92722569735827 24.684417244245623 H 0.0 **** 0.06
8563 H 120.03932360585253 217.2799506140923 24.669626998679348 H 0.0 **** 0.06
8564 H 121.08596301823894 218.66477403508162 25.0638671553981 H 0.0 **** 0.06
8565 H 120.49715834826549 218.44019296061094 23.399511525336493 H 0.0 **** 0.06
8566 C 199.0410310715656 185.1511137469891 265.66783264419894 C 0.0 **** -0.24
8567 H 198.19711511689616 184.76929146233903 266.2426647551189 H 0.0 **** 0.06
8568 H 198.9939429725759 186.23981610782198 265.63446750300125 H 0.0 **** 0.06
8569 H 198.99911581175581 184.75415586322129 264.65313618553336 H 0.0 **** 0.06
8570 H 199.97261864097686 184.84165283467019 266.1411791264894 H 0.0 **** 0.06
8571 C 213.17696013508885 205.4798205424521 2.927229436114885 C 0.0 **** -0.24
8572 H 212.48924377894656 205.0905319420404 2.1766317089019935 H 0.0 **** 0.06
8573 H 213.67142984482945 204.65039702721862 3.4317913090527554 H 0.0 **** 0.06
8574 H 212.62223439508125 206.07075163549604 3.656145856018213 H 0.0 **** 0.06
8575 H 213.92416462664738 206.10933913589344 2.4431693758540405 H 0.0 **** 0.06
8576 C 211.85349450092372 5.652502466746867 94.06068846468153 C 0.0 **** -0.24
8577 H 212.67829529323743 5.854162618711911 94.7437047040356 H 0.0 **** 0.06
8578 H 211.15438201691865 6.489724795491327 94.07928592822398 H 0.0 **** 0.06
8579 H 211.33963094994937 4.742847070352084 94.36888102391458 H 0.0 **** 0.06
8580 H 212.24209703167622 5.525905926497998 93.04950463101653 H 0.0 **** 0.06
8581 C 113.20732818953778 195.21078537717403 141.2157609044657 C 0.0 **** -0.24
8582 H 113.99867080377092 195.7314475169211 141.75515793244182 H 0.0 **** 0.06
8583 H 112.33322560968566 195.85875813236692 141.13824092891483 H 0.0 **** 0.06
8584 H 112.93978833993467 194.30116553719887 141.7525797950581 H 0.0 **** 0.06
8585 H 113.55819813369175 194.9532700231902 140.2164123792862 H 0.0 **** 0.06
8586 C 125.55429815223684 19.415335504169676 227.87401871568036 C 0.0 **** -0.24
8587 H 126.40012435214692 18.814001916836546 227.5416103770267 H 0.0 **** 0.06
8588 H 125.39601346101105 19.259915912301267 228.94141510827228 H 0.0 **** 0.06
8589 H 124.65990487745077 19.117922535122517 227.32635773769357 H 0.0 **** 0.06
8590 H 125.76191790788076 20.46891059650848 227.68644496285992 H 0.0 **** 0.06
8591 C 105.4707324574575 50.57834809172573 161.44985623224204 C 0.0 **** -0.24
8592 H 105.43031658788027 50.52060304520637 162.5368472211158 H 0.0 **** 0.06
8593 H 106.49747296636662 50.42446919038832 161.11516447988765 H 0.0 **** 0.06
8594 H 105.12589111003481 51.5596967318736 161.1256007202988 H 0.0 **** 0.06
8595 H 104.82969532842844 49.80771188208354 161.02082757933908 H 0.0 **** 0.06
8596 C 175.34154026408714 18.463629867919664 131.12280161329156 C 0.0 **** -0.24
8597 H 174.87810634464478 17.629566435995756 130.5947007239942 H 0.0 **** 0.06
8598 H 176.0134723104557 18.079669965548078 131.88933240921716 H 0.0 **** 0.06
8599 H 174.56727083839002 19.0729131406423 131.5893764747483 H 0.0 **** 0.06
8600 H 175.9047865855676 19.072090431860758 130.4150497678871 H 0.0 **** 0.06
8601 C 296.95137098610917 221.3542022240685 186.5272261493143 C 0.0 **** -0.24
8602 H 297.72028535938705 222.12474779676114 186.5949946042602 H 0.0 **** 0.06
8603 H 296.27724338976196 221.58602401116462 185.70342642419513 H 0.0 **** 0.06
8604 H 296.387766919824 221.3209296996127 187.4597762803491 H 0.0 **** 0.06
8605 H 297.4218925268542 220.38699746124428 186.35258430687026 H 0.0 **** 0.06
8606 C 204.38663604847335 244.49264000660025 138.57917259496207 C 0.0 **** -0.24
8607 H 203.7928240993058 245.32408990461488 138.95918415673964 H 0.0 **** 0.06
8608 H 205.2048140782174 244.8779004041514 137.9717999897686 H 0.0 **** 0.06
8609 H 203.7561069808262 243.84366295036938 137.97085012423238 H 0.0 **** 0.06
8610 H 204.79148545571945 243.9239088389049 139.41598688983075 H 0.0 **** 0.06
8611 C 5.469126645662371 158.78765603534288 66.21624327376153 C 0.0 **** -0.24
8612 H 5.9004618679048235 157.78921554154886 66.14399469885646 H 0.0 **** 0.06
8613 H 6.266268864317311 159.51967572833894 66.34423468089244 H 0.0 **** 0.06
8614 H 4.7948111148432275 158.8298943789215 67.07050601368942 H 0.0 **** 0.06
8615 H 4.915210021499263 159.0095903616516 65.30361362152826 H 0.0 **** 0.06
8616 C 214.3291461634907 141.35619961831063 217.23125270379623 C 0.0 **** -0.24
8617 H 213.7710360248678 141.44324927875323 216.30003749168006 H 0.0 **** 0.06
8618 H 214.2331698169305 142.2805274800363 217.80076292681906 H 0.0 **** 0.06
8619 H 215.38086290705485 141.17407483001935 217.00837200348857 H 0.0 **** 0.06
8620 H 213.93290358637054 140.52562372653293 217.8169888784873 H 0.0 **** 0.06
8621 C 2.031983334245922 268.77470278654084 113.09591638353493 C 0.0 **** -0.24
8622 H 1.8980770534869862 268.07360244147424 112.27198570374071 H 0.0 **** 0.06
8623 H 1.21867653262359 269.5009186292544 113.09092141810427 H 0.0 **** 0.06
8624 H 2.983312163795347 269.29367290187923 112.97917809991247 H 0.0 **** 0.06
8625 H 2.0285426391823194 268.2310883666562 114.04101260980084 H 0.0 **** 0.06
8626 C 81.3322166594539 105.14878059546197 287.35807991917005 C 0.0 **** -0.24
8627 H 80.83444569200594 105.31446425982654 288.31250138187204 H 0.0 **** 0.06
8628 H 80.63228630559723 105.34352968300624 286.5447290426741 H 0.0 **** 0.06
8629 H 81.67669593325866 104.1158933881552 287.3017824992122 H 0.0 **** 0.06
8630 H 82.18594533776286 105.82181054978946 287.2721184199672 H 0.0 **** 0.06
8631 C 151.541138762439 300.45257773250194 255.1165007155905 C 0.0 **** -0.24
8632 H 151.94365808730294 300.242852390809 254.1259388446668 H 0.0 **** 0.06
8633 H 152.35887722872405 300.6837855010706 255.79912661502803 H 0.0 **** 0.06
8634 H 150.99938508992363 299.5798493965426 255.48005065211845 H 0.0 **** 0.06
8635 H 150.8623379176393 301.3030518632492 255.05936480268798 H 0.0 **** 0.06
8636 C 247.1028697846306 108.62963112788793 180.90886529504263 C 0.0 **** -0.24
8637 H 247.55150866586257 107.6488692806733 181.06799010450834 H 0.0 **** 0.06
8638 H 246.53150419487824 108.914997268354 181.79194732802148 H 0.0 **** 0.06
8639 H 246.4402041401058 108.58879583640868 180.04380282499307 H 0.0 **** 0.06
8640 H 247.8885913573506 109.36372780922392 180.73056492401935 H 0.0 **** 0.06
8641 C 293.286616742949 218.6869049651604 238.8934533461932 C 0.0 **** -0.24
8642 H 294.32428472762604 218.66800634305952 239.22539813374675 H 0.0 **** 0.06
8643 H 293.2195717830577 218.27467481505965 237.88657518711568 H 0.0 **** 0.06
8644 H 292.9258329566861 219.71599950381437 238.89103570383242 H 0.0 **** 0.06
8645 H 292.6769222465473 218.0905203633236 239.57202049583884 H 0.0 **** 0.06
8646 C 98.82052866146336 41.12520900256936 228.4999555330848 C 0.0 **** -0.24
8647 H 99.57979784432118 40.34775555269826 228.58851508466878 H 0.0 **** 0.06
8648 H 99.18616064185159 41.91551958319124 227.84325408077672 H 0.0 **** 0.06
8649 H 98.6096329847656 41.539248839751565 229.48547893335717 H 0.0 **** 0.06
8650 H 97.90956032707317 40.69750093363504 228.08291735112107 H 0.0 **** 0.06
8651 C 43.42407096138098 156.57491165014312 40.502555394248816 C 0.0 **** -0.24
8652 H 43.22684659090481 155.50231001350818 40.483723664849066 H 0.0 **** 0.06
8653 H 42.66953993745963 157.09277718801616 39.91069597918448 H 0.0 **** 0.06
8654 H 44.41104183726668 156.76978665730024 40.08516521279418 H 0.0 **** 0.06
8655 H 43.38758605475422 156.93148153800024 41.53188435823617 H 0.0 **** 0.06
8656 C 20.407177452488483 263.6199737391174 182.35155163610023 C 0.0 **** -0.24
8657 H 20.155741847262235 262.9995426298985 183.21216405075484 H 0.0 **** 0.06
8658 H 20.30349091951669 264.67171619389234 182.61946256213406 H 0.0 **** 0.06
8659 H 19.7341346540006 263.3860417129145 181.52595999738912 H 0.0 **** 0.06
8660 H 21.43576409858042 263.42128547908766 182.0489498500022 H 0.0 **** 0.06
8661 C 254.22326908957422 114.08825497072613 207.86366975674076 C 0.0 **** -0.24
8662 H 255.3027715050065 114.2256207799285 207.93801036992943 H 0.0 **** 0.06
8663 H 253.9390799333907 113.1676149826416 208.37296818015784 H 0.0 **** 0.06
8664 H 253.9379423300427 114.02710358929787 206.81357428600717 H 0.0 **** 0.06
8665 H 253.71746221558874 114.93396315980141 208.32875298776747 H 0.0 **** 0.06
8666 C 31.92136047385705 266.83501622825247 249.19366865170642 C 0.0 **** -0.24
8667 H 31.867997469174355 265.77056527185476 248.96508190376417 H 0.0 **** 0.06
8668 H 30.91659344772009 267.25901826685896 249.18858435717348 H 0.0 **** 0.06
8669 H 32.53246821026397 267.3374344564244 248.44336563843262 H 0.0 **** 0.06
8670 H 32.36928146417142 266.97298034227003 250.17720921250873 H 0.0 **** 0.06
8671 C 151.4521115064643 50.31796773485192 281.37356442524646 C 0.0 **** -0.24
8672 H 150.4328718534196 50.65613729540371 281.1828388774251 H 0.0 **** 0.06
8673 H 152.1567987670884 51.06707827899257 281.0123226669175 H 0.0 **** 0.06
8674 H 151.62512030663066 49.375209942523924 280.8536884265393 H 0.0 **** 0.06
8675 H 151.59144065343952 50.173002024202276 282.44445922755517 H 0.0 **** 0.06
8676 C 132.84188123767657 259.74823953119693 275.20993149547235 C 0.0 **** -0.24
8677 H 131.75460967032564 259.7059416034228 275.14185230450346 H 0.0 **** 0.06
8678 H 133.20632166526977 258.8648758161976 275.7341815037477 H 0.0 **** 0.06
8679 H 133.13718452353086 260.64330828303144 275.7570350020107 H 0.0 **** 0.06
8680 H 133.26731396122034 259.77807160127566 274.2076728523905 H 0.0 **** 0.06
8681 C 49.566223058934355 78.73507590106485 50.09684363424546 C 0.0 **** -0.24
8682 H 48.723490438043 78.13715344743969 50.44322321969062 H 0.0 **** 0.06
8683 H 50.3249221735621 78.08056445475708 49.667435004380565 H 0.0 **** 0.06
8684 H 49.9920334717454 79.28340086319537 50.937843981084626 H 0.0 **** 0.06
8685 H 49.22408589339838 79.44086658538939 49.33907716250013 H 0.0 **** 0.06
8686 C 29.826063669264926 199.74731341095384 183.40106913732677 C 0.0 **** -0.24
8687 H 29.137358516408426 200.56399142687866 183.61860208404624 H 0.0 **** 0.06
8688 H 30.68449561143521 200.13330906583406 182.8517847821833 H 0.0 **** 0.06
8689 H 29.317381249812428 198.99471688119013 182.7982457705698 H 0.0 **** 0.06
8690 H 30.163336522949436 199.297831435094 184.33429704045483 H 0.0 **** 0.06
8691 C 304.4072474703993 40.63105719478446 137.7829089282262 C 0.0 **** -0.24
8692 H 305.12547186653023 41.247281301262774 138.3242082165171 H 0.0 **** 0.06
8693 H 304.9016090438512 40.16071370902833 136.93239732100236 H 0.0 **** 0.06
8694 H 303.58819157527694 41.2559454147856 137.42858916077375 H 0.0 **** 0.06
8695 H 304.0167881046593 39.861023891257474 138.44745579661705 H 0.0 **** 0.06
8696 C 153.82530494167872 136.37222781522863 102.22922254614826 C 0.0 **** -0.24
8697 H 153.63397110046856 137.03386598364696 103.0744773293435 H 0.0 **** 0.06
8698 H 153.29623767950818 136.743542001746 101.35201735167706 H 0.0 **** 0.06
8699 H 153.4735155853936 135.36791870701478 102.46836020640887 H 0.0 **** 0.06
8700 H 154.89542998935536 136.34396794674376 102.0251316106951 H 0.0 **** 0.06
8701 C 153.48234717823715 261.8201949015644 16.390129697373794 C 0.0 **** -0.24
8702 H 153.3269952850937 260.8118282850941 16.773339698036153 H 0.0 **** 0.06
8703 H 152.5356869977046 262.3614622629399 16.39809844786781 H 0.0 **** 0.06
8704 H 153.86068953841425 261.76702994323995 15.369056782396186 H 0.0 **** 0.06
8705 H 154.205185680265 262.3401987224838 17.01852676509091 H 0.0 **** 0.06
8706 C 169.04049488089044 176.91705043449633 229.8781413250895 C 0.0 **** -0.24
8707 H 169.52733403057061 177.05090110049116 230.84400984112435 H 0.0 **** 0.06
8708 H 167.96041008901136 177.00359057254008 230.00174958704577 H 0.0 **** 0.06
8709 H 169.2838424661233 175.93132777498977 229.48174235842367 H 0.0 **** 0.06
8710 H 169.39041052615158 177.6842049645535 229.18669984350205 H 0.0 **** 0.06
8711 C 15.577813406354622 308.33026028791596 234.02347447817908 C 0.0 **** -0.24
8712 H 16.093913984828603 309.24894777437754 233.74425262015245 H 0.0 **** 0.06
8713 H 15.480200941730871 308.2851004713535 235.1083006158936 H 0.0 **** 0.06
8714 H 16.14931595599542 307.4713438822198 233.67348335248406 H 0.0 **** 0.06
8715 H 14.587512320582732 308.31765845140364 233.5687918406444 H 0.0 **** 0.06
8716 C 25.100638817201343 131.31843314737347 303.04900942409165 C 0.0 **** -0.24
8717 H 25.24225362869049 131.8645266486236 302.1166948418755 H 0.0 **** 0.06
8718 H 25.255201270093295 130.2533327024208 302.8723208654203 H 0.0 **** 0.06
8719 H 24.087726672005118 131.48177701694843 303.4160845025677 H 0.0 **** 0.06
8720 H 25.816953400001353 131.67250355340482 303.79040197607094 H 0.0 **** 0.06
8721 C 288.01783726741377 131.317810373632 116.16202196417663 C 0.0 **** -0.24
8722 H 287.43180210238575 130.42899871751078 116.39837970273138 H 0.0 **** 0.06
8723 H 288.61341663944745 131.13186732832216 115.26819606057245 H 0.0 **** 0.06
8724 H 288.67787018691985 131.55056893280957 116.9965334019679 H 0.0 **** 0.06
8725 H 287.3473934597845 132.15795385770548 115.98363089748679 H 0.0 **** 0.06
8726 C 117.34518299366258 297.0774384602751 71.05231538145026 C 0.0 **** -0.24
8727 H 116.53670610746863 296.4007491584342 71.3268059236166 H 0.0 **** 0.06
8728 H 117.69612691969505 296.83683581156527 70.04907509436336 H 0.0 **** 0.06
8729 H 118.16683422812608 296.9686053484016 71.76135272866952 H 0.0 **** 0.06
8730 H 116.98110906019463 298.10457494747254 71.07402153849839 H 0.0 **** 0.06
8731 C 248.10157489510343 216.39868989741217 92.880669619862 C 0.0 **** -0.24
8732 H 248.57790953825304 217.2752416630003 93.31801005101977 H 0.0 **** 0.06
8733 H 248.72904898317233 216.00581658565878 92.078942613968 H 0.0 **** 0.06
8734 H 247.12814799546533 216.67781359694402 92.47710254685506 H 0.0 **** 0.06
8735 H 247.97197276299408 215.6347998109435 93.64752395699887 H 0.0 **** 0.06
8736 C 312.1757950807747 129.21266725446227 179.8941897972535 C 0.0 **** -0.24
8737 H 311.149831792146 129.55631388413113 179.76576211283822 H 0.0 **** 0.06
8738 H 312.8112860082843 130.05639175696692 180.164283479936 H 0.0 **** 0.06
8739 H 312.5315391808891 128.77397753910427 178.96106664026706 H 0.0 **** 0.06
8740 H 312.2123048174831 128.4620303105796 180.68423192991855 H 0.0 **** 0.06
8741 C 258.17477458489935 245.9576580622942 85.41181224441226 C 0.0 **** -0.24
8742 H 258.6676593869854 245.3908152094461 86.20176737147173 H 0.0 **** 0.06
8743 H 258.73333069637295 245.8451878941685 84.48230437253261 H 0.0 **** 0.06
8744 H 258.13885699233936 247.010810283493 85.68941568942387 H 0.0 **** 0.06
8745 H 257.1608114374619 245.5837654411606 85.27451188958884 H 0.0 **** 0.06
8746 C 79.06517950470302 154.1796461482458 299.1344209319918 C 0.0 **** -0.24
8747 H 79.03194148058398 153.2982898350441 299.7740181707379 H 0.0 **** 0.06
8748 H 78.10999824485376 154.70386062687356 299.18834958928426 H 0.0 **** 0.06
8749 H 79.25348036236767 153.87426396571084 298.10492063489954 H 0.0 **** 0.06
8750 H 79.8628406275877 154.84306864960166 299.46892753657073 H 0.0 **** 0.06
8751 C 307.9243942017695 306.6922940444151 65.77771603838715 C 0.0 **** -0.24
8752 H 308.28651614492094 306.0684114530359 66.5952926791461 H 0.0 **** 0.06
8753 H 308.23795980558134 306.261856657323 64.82630045046415 H 0.0 **** 0.06
8754 H 308.33769286460597 307.6955318331776 65.8768850864198 H 0.0 **** 0.06
8755 H 306.83669112099983 306.7423651158475 65.81296146617214 H 0.0 **** 0.06
8756 C 313.3892200863877 292.00174707801943 189.36054433970702 C 0.0 **** -0.24
8757 H 314.46964762039966 292.1144595083729 189.4533807775066 H 0.0 **** 0.06
8758 H 312.90868138204746 292.968823366011 189.51016171417956 H 0.0 **** 0.06
8759 H 313.0314272551494 291.29799719078926 190.1129084414643 H 0.0 **** 0.06
8760 H 313.14731194609413 291.62516044518395 188.3670166317077 H 0.0 **** 0.06
8761 C 153.45000858719675 270.58859940074217 14.782298277801615 C 0.0 **** -0.24
8762 H 152.41416855204864 270.6634784887401 14.452118188455671 H 0.0 **** 0.06
8763 H 154.00431990682978 269.94753049910923 14.096391595438405 H 0.0 **** 0.06
8764 H 153.48204940199685 270.16193425963627 15.784528087244183 H 0.0 **** 0.06
8765 H 153.89954130971597 271.581437674908 14.794741832211187 H 0.0 **** 0.06
8766 C 210.7209176325558 69.76491173112518 35.25251558215032 C 0.0 **** -0.24
8767 H 210.60445206774625 69.60963351220204 36.32455512977373 H 0.0 **** 0.06
8768 H 211.76877274181086 69.96512373673909 35.027077838233396 H 0.0 **** 0.06
8769 H 210.11319362944218 70.6155399419271 34.94021677741634 H 0.0 **** 0.06
8770 H 210.3975307656296 68.87212245804719 34.718696707046206 H 0.0 **** 0.06
8771 C 69.39068059686136 253.78971198339008 136.98787403418112 C 0.0 **** -0.24
8772 H 69.88342039995564 254.12981485456666 137.89931074523395 H 0.0 **** 0.06
8773 H 69.13651035578553 254.65190602429095 136.37061049374753 H 0.0 **** 0.06
8774 H 68.48196018660215 253.24825227381947 137.2481180397199 H 0.0 **** 0.06
8775 H 70.06148086971407 253.1319058440787 136.43683191330268 H 0.0 **** 0.06
8776 C 153.37512617113396 278.85785911379605 150.9732689616518 C 0.0 **** -0.24
8777 H 153.9370900270394 279.5613508271287 151.58903709321453 H 0.0 **** 0.06
8778 H 152.39674647850438 278.6847414980977 151.42262163237137 H 0.0 **** 0.06
8779 H 153.91893830540494 277.91515596543394 150.91192169604147 H 0.0 **** 0.06
8780 H 153.2494019029778 279.2711606669957 149.97269833298674 H 0.0 **** 0.06
8781 C 68.2428494429806 89.9328680054862 243.77790172319072 C 0.0 **** -0.24
8782 H 67.8955028497771 89.37295675520113 244.64595476533256 H 0.0 **** 0.06
8783 H 69.33244501311609 89.96858517348255 243.78075289726308 H 0.0 **** 0.06
8784 H 67.84611630730629 90.94719337174794 243.81790446354293 H 0.0 **** 0.06
8785 H 67.89697398809886 89.44387543676189 242.86775240415602 H 0.0 **** 0.06
8786 C 156.57024480324088 92.32000629153296 227.9112063715782 C 0.0 **** -0.24
8787 H 156.14431791279958 92.29599279495562 228.9142507304472 H 0.0 **** 0.06
8788 H 157.10597597393723 93.25767372303721 227.7665300212822 H 0.0 **** 0.06
8789 H 155.76991186538658 92.24085418110405 227.17578643721373 H 0.0 **** 0.06
8790 H 157.2591427930193 91.48480654074768 227.78961985672228 H 0.0 **** 0.06
8791 C 180.69955995857407 145.75995561444452 286.4917322377838 C 0.0 **** -0.24
8792 H 180.87525669094236 146.50886422850402 285.71918457062065 H 0.0 **** 0.06
8793 H 181.0790083464645 144.79479700763972 286.1549724743652 H 0.0 **** 0.06
8794 H 179.629938580675 145.68216648032003 286.685735606403 H 0.0 **** 0.06
8795 H 181.2145097887675 146.05451834222427 287.40581090995977 H 0.0 **** 0.06
8796 C 197.94549072306438 182.22469886800513 180.3260424638333 C 0.0 **** -0.24
8797 H 198.64110379883647 181.60213866464625 180.8889550618195 H 0.0 **** 0.06
8798 H 198.13966500841883 183.2751278952715 180.5453791012814 H 0.0 **** 0.06
8799 H 196.92362697412977 181.9766105865453 180.61144398647514 H 0.0 **** 0.06
8800 H 198.07987237651832 182.0450963387317 179.25920046321744 H 0.0 **** 0.06
8801 C 56.28687897078649 38.62647596152638 75.79704083318936 C 0.0 **** -0.24
8802 H 56.36167697982836 39.6568320940807 76.14341901358986 H 0.0 **** 0.06
8803 H 57.27894217871446 38.260435273995114 75.5298477137323 H 0.0 **** 0.06
8804 H 55.635363396892444 38.582804407246556 74.92519474870824 H 0.0 **** 0.06
8805 H 55.872408233482474 38.0057489584249 76.59175798287635 H 0.0 **** 0.06
8806 C 290.4881813377202 11.169551177033497 224.7202475059134 C 0.0 **** -0.24
8807 H 291.1362785496201 11.958606858459518 225.10090940702236 H 0.0 **** 0.06
8808 H 289.5950208824156 11.1027153894089 225.3416787006249 H 0.0 **** 0.06
8809 H 291.0211387183631 10.218261669585388 224.74591967696864 H 0.0 **** 0.06
8810 H 290.20140936138523 11.397292214854701 223.69388782208318 H 0.0 **** 0.06
8811 C 222.96728854625053 90.00595624492522 260.0955155586097 C 0.0 **** -0.24
8812 H 222.1128730718748 89.99051226222065 260.77370287782355 H 0.0 **** 0.06
8813 H 222.7090127708557 90.56874169741204 259.1989418000467 H 0.0 **** 0.06
8814 H 223.23122447849283 88.98460054013918 259.82129539601954 H 0.0 **** 0.06
8815 H 223.8150870439129 90.4804335485417 260.5912638341056 H 0.0 **** 0.06
8816 C 56.864093324637366 125.99451626369921 206.42498191204038 C 0.0 **** -0.24
8817 H 57.700354230942565 126.49070213143332 206.91654027780663 H 0.0 **** 0.06
8818 H 56.11325796210042 126.73637547631273 206.1485211952304 H 0.0 **** 0.06
8819 H 56.42249576598914 125.26609624343763 207.10471952183565 H 0.0 **** 0.06
8820 H 57.219651858328774 125.486561227082 205.52846299968343 H 0.0 **** 0.06
8821 C 112.13638925693655 41.349314093446054 260.59143445285963 C 0.0 **** -0.24
8822 H 112.17731659255489 40.28311218542902 260.81300338573044 H 0.0 **** 0.06
8823 H 111.10750315490387 41.6990286649428 260.675657116131 H 0.0 **** 0.06
8824 H 112.49709603769494 41.522979512178836 259.5766254562419 H 0.0 **** 0.06
8825 H 112.76493619362816 41.890932701373174 261.29782979455916 H 0.0 **** 0.06
8826 C 210.63255056621975 18.172580898603144 199.82731002989948 C 0.0 **** -0.24
8827 H 211.54142716974542 17.616218642614285 199.5977240753429 H 0.0 **** 0.06
8828 H 210.2253004556078 17.825496182736856 200.77654282222807 H 0.0 **** 0.06
8829 H 209.90019256057042 18.012206586880495 199.03670824820705 H 0.0 **** 0.06
8830 H 210.865561744071 19.2342344077814 199.8979425980404 H 0.0 **** 0.06
8831 C 185.9647163828202 83.0174219551495 221.13901389619593 C 0.0 **** -0.24
8832 H 186.54998939801237 83.54525663180902 220.38674905118836 H 0.0 **** 0.06
8833 H 185.10584305337062 82.5430102359027 220.66398497517827 H 0.0 **** 0.06
8834 H 185.6177298312665 83.72617155995681 221.89141052293436 H 0.0 **** 0.06
8835 H 186.58373994066898 82.25683242434093 221.61368720009636 H 0.0 **** 0.06
8836 C 67.82508034102301 139.73673762421404 280.77638214720196 C 0.0 **** -0.24
8837 H 67.44673134327579 140.52429973630476 281.427763221251 H 0.0 **** 0.06
8838 H 68.79004593533705 140.03641191098615 280.3682460534303 H 0.0 **** 0.06
8839 H 67.12034682339154 139.57060621580447 279.9611954340794 H 0.0 **** 0.06
8840 H 67.94167687925741 138.81646180855265 281.3483541904909 H 0.0 **** 0.06
8841 C 265.285628652907 259.8060432137666 292.2336390921798 C 0.0 **** -0.24
8842 H 265.0262994033099 259.28392026065217 291.31239085519553 H 0.0 **** 0.06
8843 H 265.42816402805926 260.86621728888343 292.0228739386429 H 0.0 **** 0.06
8844 H 266.2083630214854 259.3888515037498 292.6382706740979 H 0.0 **** 0.06
8845 H 264.48255122528644 259.68392943168243 292.95922382973913 H 0.0 **** 0.06
8846 C 157.7295386479347 308.3740776785637 306.61830452110763 C 0.0 **** -0.24
8847 H 157.15412085917558 308.7252031600534 305.7620851497518 H 0.0 **** 0.06
8848 H 158.78340042306746 308.6088879620906 306.4691206103884 H 0.0 **** 0.06
8849 H 157.60792688897305 307.29482203017443 306.71892848778583 H 0.0 **** 0.06
8850 H 157.37109711544184 308.86610108608164 307.52222984000014 H 0.0 **** 0.06
8851 C 152.0139492134 43.86139789290368 167.2762509531209 C 0.0 **** -0.24
8852 H 152.27149136202894 42.91083549875762 167.74400358977744 H 0.0 **** 0.06
8853 H 152.70727728851432 44.63244110851139 167.61497635542798 H 0.0 **** 0.06
8854 H 150.99737285383821 44.139622920572634 167.55283671857234 H 0.0 **** 0.06
8855 H 152.0824149644277 43.763191574764306 166.19281968617628 H 0.0 **** 0.06
8856 C 115.74786675926916 310.24472423640634 228.82137737229527 C 0.0 **** -0.24
8857 H 115.54805815288873 309.17917792857844 228.70715417942745 H 0.0 **** 0.06
8858 H 115.43614939341512 310.56756552920405 229.81517067955787 H 0.0 **** 0.06
8859 H 115.19235066976515 310.800875238904 228.06723131212408 H 0.0 **** 0.06
8860 H 116.81479904394041 310.4288811284614 228.69644503895762 H 0.0 **** 0.06
8861 C 285.60887622091764 104.16339379066713 119.1074869944118 C 0.0 **** -0.24
8862 H 286.03306403899614 104.44241527887951 120.07177276737937 H 0.0 **** 0.06
8863 H 286.3983795619887 103.78526034152867 118.45767015783966 H 0.0 **** 0.06
8864 H 285.1480254849089 105.03806632951355 118.64754145108597 H 0.0 **** 0.06
8865 H 284.85565745518534 103.38943811257627 119.25243334958131 H 0.0 **** 0.06
8866 C 174.85490669464934 76.77845594963208 287.03458081759857 C 0.0 **** -0.24
8867 H 174.24648242587682 77.45248494405516 287.637961440309 H 0.0 **** 0.06
8868 H 174.31130853618038 75.84783258816944 286.8710340289766 H 0.0 **** 0.06
8869 H 175.78821402399387 76.56825770012694 287.5558997890173 H 0.0 **** 0.06
8870 H 175.07231963745915 77.24726588276599 286.0749229575524 H 0.0 **** 0.06
8871 C 208.54448393387324 262.5811307146196 69.84053787615974 C 0.0 **** -0.24
8872 H 209.07016014284048 261.6363885060664 69.69802458726275 H 0.0 **** 0.06
8873 H 207.47760066679916 262.4314711867456 69.67272407090763 H 0.0 **** 0.06
8874 H 208.9250131815902 263.31807346840304 69.13339700019034 H 0.0 **** 0.06
8875 H 208.70685690781636 262.9363814801696 70.85850608004156 H 0.0 **** 0.06
8876 C 208.63618853976118 116.54112177429178 29.064444720305858 C 0.0 **** -0.24
8877 H 208.87047019639317 115.68488234675394 28.43266193018087 H 0.0 **** 0.06
8878 H 208.92333119665892 116.32129723170573 30.093583983529356 H 0.0 **** 0.06
8879 H 207.5658496458808 116.742122256861 29.020754819382773 H 0.0 **** 0.06
8880 H 209.18505373987466 117.41441437596262 28.71246976031898 H 0.0 **** 0.06
8881 C 287.68867243226435 129.03850128525022 104.91549485827437 C 0.0 **** -0.24
8882 H 287.4231066971105 128.07517500795956 105.35124670862638 H 0.0 **** 0.06
8883 H 287.8424894827236 128.9226203093448 103.84254832407396 H 0.0 **** 0.06
8884 H 288.6055085156592 129.40530155088507 105.37681200573871 H 0.0 **** 0.06
8885 H 286.88364097760274 129.75176032078036 105.09287934456864 H 0.0 **** 0.06
8886 C 279.13787160244925 222.06112285272593 198.51803040107052 C 0.0 **** -0.24
8887 H 278.1925140658803 222.6034617417826 198.51810910186396 H 0.0 **** 0.06
8888 H 279.6225322358844 222.17586388157395 199.48724292349777 H 0.0 **** 0.06
8889 H 279.78557120535856 222.4599111517639 197.73677277997467 H 0.0 **** 0.06
8890 H 278.9493753995879 221.00418919870307 198.3292003629016 H 0.0 **** 0.06
8891 C 28.09759362655342 170.71134226168164 39.99119731511573 C 0.0 **** -0.24
8892 H 28.229118805959615 170.05027626509332 40.847152465904855 H 0.0 **** 0.06
8893 H 28.755191068625606 171.57511597459927 40.094226105901356 H 0.0 **** 0.06
8894 H 27.060726825306716 171.04682280855997 39.94816947140788 H 0.0 **** 0.06
8895 H 28.343418001243407 170.17426869654906 39.07550920825136 H 0.0 **** 0.06
8896 C 270.4199491943163 302.26915595691815 297.3410583037098 C 0.0 **** -0.24
8897 H 270.03414791080735 301.71124589884465 296.48726202176596 H 0.0 **** 0.06
8898 H 271.1773389570292 302.97537832603047 297.00126562942097 H 0.0 **** 0.06
8899 H 270.8632226312942 301.5769857084191 298.05711092614354 H 0.0 **** 0.06
8900 H 269.6043168857615 302.81203941697834 297.81791869491195 H 0.0 **** 0.06
8901 C 127.41835711759984 120.71707652578348 108.81980894360044 C 0.0 **** -0.24
8902 H 128.35872276365615 121.2669538136706 108.86063504923416 H 0.0 **** 0.06
8903 H 127.08678306418426 120.48775060429693 109.8330130806498 H 0.0 **** 0.06
8904 H 127.56341476675675 119.78930397140493 108.26624258233838 H 0.0 **** 0.06
8905 H 126.66450787580226 121.32429771376141 108.31934506217942 H 0.0 **** 0.06
8906 C 179.7016652113967 284.62121174945423 86.8097597831605 C 0.0 **** -0.24
8907 H 179.8137164362945 283.54274828408256 86.9234674297667 H 0.0 **** 0.06
8908 H 179.77915465495045 285.0984704563219 87.78687536728941 H 0.0 **** 0.06
8909 H 178.72719617409973 284.84107860853527 86.37356256858286 H 0.0 **** 0.06
8910 H 180.48657345752412 285.00090793376256 86.15568547350733 H 0.0 **** 0.06
8911 C 140.0436228720118 89.54889260348466 97.46094627654986 C 0.0 **** -0.24
8912 H 140.7665264733967 88.76744968439863 97.22409885134527 H 0.0 **** 0.06
8913 H 139.5846909618531 89.90957987582894 96.54019628599164 H 0.0 **** 0.06
8914 H 140.55141290089256 90.37245640281239 97.96188868862387 H 0.0 **** 0.06
8915 H 139.2735229424382 89.14362266512316 98.117179257082 H 0.0 **** 0.06
8916 C 135.67114289008384 7.056523416738401 205.5102254773322 C 0.0 **** -0.24
8917 H 136.33360574776825 6.546984925656432 206.20995673879708 H 0.0 **** 0.06
8918 H 135.43146165554444 6.387830053358471 204.68425426973687 H 0.0 **** 0.06
8919 H 136.16697930558686 7.9477269834818 205.12538420866798 H 0.0 **** 0.06
8920 H 134.75374957155333 7.345113173812592 206.0235565620364 H 0.0 **** 0.06
8921 C 223.542674063474 34.422483515553495 311.56727890600405 C 0.0 **** -0.24
8922 H 223.28967076048468 34.59653401274409 310.5213916733569 H 0.0 **** 0.06
8923 H 223.52435536686968 33.35186036974409 311.7721126357998 H 0.0 **** 0.06
8924 H 222.8166454711764 34.927537847680355 312.2047284778722 H 0.0 **** 0.06
8925 H 224.539211791198 34.81460880598081 311.7691592208761 H 0.0 **** 0.06
8926 C 173.90756375122982 137.462501944473 34.26690680721916 C 0.0 **** -0.24
8927 H 173.80621955934805 136.82402171628794 35.1444725897625 H 0.0 **** 0.06
8928 H 173.06295800823472 137.2983335333864 33.598400847914974 H 0.0 **** 0.06
8929 H 174.83513588678545 137.22061903680265 33.74665499432521 H 0.0 **** 0.06
8930 H 173.92805962831773 138.5064888211729 34.578564740451014 H 0.0 **** 0.06
8931 C 2.3311740734582855 148.87336974079852 196.6626702534336 C 0.0 **** -0.24
8932 H 2.381310002798898 149.92636332060403 196.38372892628934 H 0.0 **** 0.06
8933 H 1.2939412390245764 148.59693800267385 196.8501372856149 H 0.0 **** 0.06
8934 H 2.919764576781006 148.70931044627315 197.56506047680574 H 0.0 **** 0.06
8935 H 2.730246162680487 148.26413176993907 195.8519046208906 H 0.0 **** 0.06
8936 C 260.84116483399214 145.46195100216698 94.18079994168076 C 0.0 **** -0.24
8937 H 261.09733970366955 145.63644532543825 93.13659617338325 H 0.0 **** 0.06
8938 H 261.23776002494844 146.2720141366781 94.79338816022033 H 0.0 **** 0.06
8939 H 261.27167228494915 144.51524898259072 94.50735770269361 H 0.0 **** 0.06
8940 H 259.75689555835197 145.42265138255533 94.28724725072169 H 0.0 **** 0.06
8941 C 13.572947982101994 111.43180689078244 298.7546794714103 C 0.0 **** -0.24
8942 H 13.615811518430064 112.37755398967897 298.2145734710601 H 0.0 **** 0.06
8943 H 14.437251186973697 110.82262146215191 298.4901564411839 H 0.0 **** 0.06
8944 H 12.659018301967649 110.90176395602359 298.4866153431067 H 0.0 **** 0.06
8945 H 13.578769955155394 111.62559468754264 299.82751624673404 H 0.0 **** 0.06
8946 C 200.39685972900344 87.31947177274333 133.06280266429468 C 0.0 **** -0.24
8947 H 201.2374382126123 88.00721752009213 132.96755061835134 H 0.0 **** 0.06
8948 H 199.99993880513045 87.36809708071058 134.0773472490969 H 0.0 **** 0.06
8949 H 200.73293878509918 86.3040850787473 132.8510667845933 H 0.0 **** 0.06
8950 H 199.61769677118855 87.59910954795504 132.35411292454802 H 0.0 **** 0.06
8951 C 58.215733124505306 186.9386723493506 153.50215376930424 C 0.0 **** -0.24
8952 H 58.90931831613199 187.69794529196736 153.14059114496064 H 0.0 **** 0.06
8953 H 58.772806529058016 186.05008894450953 153.79774656496676 H 0.0 **** 0.06
8954 H 57.513376353027354 186.68137829242977 152.71018339261138 H 0.0 **** 0.06
8955 H 57.668946769856944 187.32697771589147 154.36099425001015 H 0.0 **** 0.06
8956 C 134.28287658894385 10.754189556744208 7.14774469418245 C 0.0 **** -0.24
8957 H 133.51993090058872 10.588139614786769 7.90780169199806 H 0.0 **** 0.06
8958 H 135.218910811852 10.294249843928881 7.465774169885179 H 0.0 **** 0.06
8959 H 134.43251222816977 11.82576877974607 7.011515111018767 H 0.0 **** 0.06
8960 H 133.96055155178163 10.310245895735818 6.206250698979247 H 0.0 **** 0.06
8961 C 265.115784692248 66.23738631047553 281.1959459415231 C 0.0 **** -0.24
8962 H 264.86156985685346 65.90309292265698 280.18997919288495 H 0.0 **** 0.06
8963 H 264.60550307514336 67.17716959418752 281.40593260518057 H 0.0 **** 0.06
8964 H 266.1940323573115 66.38501993399012 281.2681722720006 H 0.0 **** 0.06
8965 H 264.8032068658587 65.4843918531906 281.91892090410386 H 0.0 **** 0.06
8966 C 209.47666855583765 119.95293849050222 264.576175592589 C 0.0 **** -0.24
8967 H 210.47823328535554 119.82297780988358 264.16511760638946 H 0.0 **** 0.06
8968 H 209.53981285887076 120.49769473837452 265.5189501064309 H 0.0 **** 0.06
8969 H 209.0257958180843 118.97621428433672 264.7499741731075 H 0.0 **** 0.06
8970 H 208.86485014523345 120.51592269704778 263.8715626747462 H 0.0 **** 0.06
8971 C 122.26426041180119 298.5342889093514 268.189179081891 C 0.0 **** -0.24
8972 H 122.22123187455898 299.14734000444486 269.08950749447337 H 0.0 **** 0.06
8973 H 123.25070882644602 298.62806324679434 267.73307683794474 H 0.0 **** 0.06
8974 H 121.5038102321432 298.8701983900138 267.4842090860754 H 0.0 **** 0.06
8975 H 122.0812907140567 297.4915539961527 268.4499229090705 H 0.0 **** 0.06
8976 C 52.49000369128507 238.90161131215885 47.47455742147068 C 0.0 **** -0.24
8977 H 51.94466805480954 239.8375358775074 47.36159020266507 H 0.0 **** 0.06
8978 H 52.75096161054839 238.7570033780588 48.52355211428613 H 0.0 **** 0.06
8979 H 53.39948349718907 238.93667321867107 46.874970485040706 H 0.0 **** 0.06
8980 H 51.86505608104409 238.07351156070453 47.138000379221836 H 0.0 **** 0.06
8981 C 195.761020317619 264.4893568342802 198.91309135005383 C 0.0 **** -0.24
8982 H 195.42252705377126 264.2523708781681 197.90478766872195 H 0.0 **** 0.06
8983 H 195.31740286434092 265.4327266574185 199.23334794609212 H 0.0 **** 0.06
8984 H 196.8467809066094 264.5773711031317 198.9203560172279 H 0.0 **** 0.06
8985 H 195.45517549134945 263.6946627214238 199.5941813316669 H 0.0 **** 0.06
8986 C 167.81853450172298 264.8951436878919 227.42191938740024 C 0.0 **** -0.24
8987 H 167.7156140883938 265.3954756219797 228.38495505411456 H 0.0 **** 0.06
8988 H 168.77064851594724 265.17396119950627 226.96860376168323 H 0.0 **** 0.06
8989 H 167.00109211721553 265.196428898538 226.76709535123217 H 0.0 **** 0.06
8990 H 167.7877264797392 263.81547575323 227.56890022691366 H 0.0 **** 0.06
8991 C 40.057735129141406 108.22690284050438 68.11112792905206 C 0.0 **** -0.24
8992 H 39.63171499692169 109.19465410112255 68.37574594479915 H 0.0 **** 0.06
8993 H 40.99054884840973 108.07876452707336 68.65509571730931 H 0.0 **** 0.06
8994 H 40.25303770463859 108.19752850913153 67.03886191468612 H 0.0 **** 0.06
8995 H 39.35417038003095 107.43716887105529 68.37404093731729 H 0.0 **** 0.06
8996 C 231.74550254616068 199.32738370114367 264.52634525477436 C 0.0 **** -0.24
8997 H 230.88941494714993 199.90657821118498 264.1798801142545 H 0.0 **** 0.06
8998 H 232.29246020315998 198.93829529033133 263.6672667472674 H 0.0 **** 0.06
8999 H 231.39746427316922 198.4983305543381 265.14191944773887 H 0.0 **** 0.06
9000 H 232.40217011519118 199.96764430264284 265.11615998844695 H 0.0 **** 0.06
9001 C 169.99264493239122 258.963259974539 95.8811879017936 C 0.0 **** -0.24
9002 H 169.7119821118972 259.7450362346228 95.17554662658318 H 0.0 **** 0.06
9003 H 169.51134655022577 258.02729777496603 95.59600378180522 H 0.0 **** 0.06
9004 H 169.67307304843013 259.2463546500407 96.88409894750589 H 0.0 **** 0.06
9005 H 171.0749976762362 258.83363267903945 95.8682012278044 H 0.0 **** 0.06
9006 C 130.46480456563796 282.26020063844516 243.84101093535202 C 0.0 **** -0.24
9007 H 131.04664720094806 281.99101148967486 242.95962413110095 H 0.0 **** 0.06
9008 H 129.47849259659228 282.61023659537864 243.5324693831048 H 0.0 **** 0.06
9009 H 130.97688963214446 283.0530618135062 244.38654222988328 H 0.0 **** 0.06
9010 H 130.35620264156046 281.38776602416067 244.4847708381871 H 0.0 **** 0.06
9011 C 62.61173449663238 76.8950132386478 242.05558149795812 C 0.0 **** -0.24
9012 H 63.45156575587859 76.8340942831324 242.7471360388794 H 0.0 **** 0.06
9013 H 62.40714363302928 77.9404740287984 241.82431181607154 H 0.0 **** 0.06
9014 H 61.73122402846823 76.44423402769439 242.51206672538547 H 0.0 **** 0.06
9015 H 62.858233341350626 76.36203091879645 241.13684131712336 H 0.0 **** 0.06
9016 C 304.36756454371175 285.1677728008688 211.44126567353263 C 0.0 **** -0.24
9017 H 305.0754377554091 285.9038131523605 211.06146775028472 H 0.0 **** 0.06
9018 H 304.91032303406246 284.369048570408 211.94590432716302 H 0.0 **** 0.06
9019 H 303.7957632638567 284.75195860550076 210.61176389507904 H 0.0 **** 0.06
9020 H 303.68830339891235 285.6477581559485 212.14670292231128 H 0.0 **** 0.06
9021 C 133.86360931391835 126.64705046503173 223.01693444204878 C 0.0 **** -0.24
9022 H 133.55066099993175 126.50311859404061 221.98288158150518 H 0.0 **** 0.06
9023 H 133.98483397662213 127.71234488069342 223.2154029353 H 0.0 **** 0.06
9024 H 134.8115665324957 126.13646564897059 223.18384041297446 H 0.0 **** 0.06
9025 H 133.1073757466238 126.23627273642239 223.6856128384155 H 0.0 **** 0.06
9026 C 100.5063617139929 178.4106516742628 51.82530394336703 C 0.0 **** -0.24
9027 H 99.77671625433129 177.61126551016628 51.69422909473428 H 0.0 **** 0.06
9028 H 100.11477726878107 179.33358332732166 51.39621171410835 H 0.0 **** 0.06
9029 H 101.4351865225764 178.1415563002633 51.32238595365416 H 0.0 **** 0.06
9030 H 100.69814984607396 178.55643637439778 52.88914015778633 H 0.0 **** 0.06
9031 C 314.1650243089962 286.19219265165606 187.4330436730445 C 0.0 **** -0.24
9032 H 313.4735834482631 285.9989260867101 188.25338014196365 H 0.0 **** 0.06
9033 H 314.82123311206226 285.33102974255456 187.30081354075486 H 0.0 **** 0.06
9034 H 314.76333030703114 287.0740021460239 187.6626722843551 H 0.0 **** 0.06
9035 H 313.60147276012685 286.3640803601625 186.5157941873082 H 0.0 **** 0.06
9036 C 209.38496331853128 173.84596265154454 19.76862946086476 C 0.0 **** -0.24
9037 H 208.84793540082273 173.05593290005567 19.243530081619156 H 0.0 **** 0.06
9038 H 208.73349541621906 174.28781971602183 20.52259912659514 H 0.0 **** 0.06
9039 H 209.68927642872723 174.61279476794493 19.05612234716665 H 0.0 **** 0.06
9040 H 210.26708771732058 173.42610114585284 20.249960118575302 H 0.0 **** 0.06
9041 C 195.67866355383916 291.18883818857853 85.413639478817 C 0.0 **** -0.24
9042 H 195.81381702860955 290.16285869657827 85.75562481340978 H 0.0 **** 0.06
9043 H 195.41546453889924 291.1873624118915 84.35566242199559 H 0.0 **** 0.06
9044 H 196.6048208541647 291.7445259137892 85.5564790808113 H 0.0 **** 0.06
9045 H 194.87951930234811 291.6596916457963 85.98647788427616 H 0.0 **** 0.06
9046 C 311.77070467208864 26.56440249791885 204.0934210138932 C 0.0 **** -0.24
9047 H 311.5572540216824 25.970226134635453 203.20503392601495 H 0.0 **** 0.06
9048 H 310.896172504791 27.163424781434884 204.3471475236318 H 0.0 **** 0.06
9049 H 312.6171119436168 27.221400041301536 203.89499645498762 H 0.0 **** 0.06
9050 H 312.0112875115458 25.9012476068024 204.92399722052738 H 0.0 **** 0.06
9051 C 19.172390051740024 104.86653116939672 137.93685817263784 C 0.0 **** -0.24
9052 H 19.35912995142519 103.93455982013148 137.4043509341705 H 0.0 **** 0.06
9053 H 18.41763171931393 105.4441212727096 137.40221727757563 H 0.0 **** 0.06
9054 H 20.095427629428855 105.44241015774261 137.99800854155575 H 0.0 **** 0.06
9055 H 18.814965344565735 104.64458622983895 138.9427405592217 H 0.0 **** 0.06
9056 C 218.48848905985915 75.68426316237739 38.25456400978351 C 0.0 **** -0.24
9057 H 218.92187938941925 76.48985421622547 37.66165320093626 H 0.0 **** 0.06
9058 H 219.17510390847485 74.837545489854 38.27355309797417 H 0.0 **** 0.06
9059 H 217.54212751010903 75.37569359436137 37.81145681672126 H 0.0 **** 0.06
9060 H 218.31577276900316 76.03389998686163 39.271962417295924 H 0.0 **** 0.06
9061 C 29.91246121983852 96.54409501318483 5.279318367217286 C 0.0 **** -0.24
9062 H 29.36356208527141 97.46087624634643 5.06287146172059 H 0.0 **** 0.06
9063 H 30.340261788912812 96.14972226874363 4.357401254263209 H 0.0 **** 0.06
9064 H 29.234324987550224 95.80767768287211 5.711306930868375 H 0.0 **** 0.06
9065 H 30.71294348228568 96.75997728570297 5.987915112971052 H 0.0 **** 0.06
9066 C 246.65738401639027 287.6555347927309 313.71366774166705 C 0.0 **** -0.24
9067 H 246.57833711029545 286.8392425895024 314.43164961847367 H 0.0 **** 0.06
9068 H 245.67467099529773 288.10235810210634 313.56395669696576 H 0.0 **** 0.06
9069 H 247.03045537136907 287.2702975193487 312.7646844133156 H 0.0 **** 0.06
9070 H 247.34567113641975 288.409405804607 314.09615262886496 H 0.0 **** 0.06
9071 C 187.7712242490337 84.8875159750842 209.96492060300972 C 0.0 **** -0.24
9072 H 186.76666719313647 84.87190360910762 209.54205924770156 H 0.0 **** 0.06
9073 H 187.71970719158395 84.66258542900539 211.03103907676 H 0.0 **** 0.06
9074 H 188.21035397250074 85.87473786601359 209.82265897052088 H 0.0 **** 0.06
9075 H 188.38750817908834 84.14003300428683 209.46488292643843 H 0.0 **** 0.06
9076 C 131.50035838367654 43.67647025564622 34.41109418214393 C 0.0 **** -0.24
9077 H 131.16994459139593 43.14629045005836 35.30469501732628 H 0.0 **** 0.06
9078 H 132.56768433657044 43.51064696889455 34.26472376911963 H 0.0 **** 0.06
9079 H 131.31142798179124 44.742986449760906 34.531126921137854 H 0.0 **** 0.06
9080 H 130.95208304324245 43.305602823380866 33.54550083331512 H 0.0 **** 0.06
9081 C 86.78245734426599 109.92448834454751 134.81680563126503 C 0.0 **** -0.24
9082 H 87.117419226295 110.85190545997767 135.28181464567805 H 0.0 **** 0.06
9083 H 87.35691935200049 109.08919338795863 135.21852081842763 H 0.0 **** 0.06
9084 H 86.93140430248374 109.98414095890811 133.7394089020671 H 0.0 **** 0.06
9085 H 85.72400297782357 109.77340590293323 135.02982629190245 H 0.0 **** 0.06
9086 C 98.27211169190767 84.01341139386693 299.3919104904136 C 0.0 **** -0.24
9087 H 98.90890123308773 84.8633681078309 299.14942336007346 H 0.0 **** 0.06
9088 H 97.28743444567507 84.15911860163689 298.94763300871216 H 0.0 **** 0.06
9089 H 98.1738012053417 83.93095466858742 300.47449595503883 H 0.0 **** 0.06
9090 H 98.71805316748856 83.10078212034063 298.9973545927584 H 0.0 **** 0.06
9091 C 175.32725029370397 199.36461680760715 307.347000807481 C 0.0 **** -0.24
9092 H 174.78267146297657 199.99978166217 308.0459620772208 H 0.0 **** 0.06
9093 H 174.9349077666779 199.51358821964243 306.3401615861079 H 0.0 **** 0.06
9094 H 175.20568229867894 198.32064439186138 307.6343893316904 H 0.0 **** 0.06
9095 H 176.38500133478743 199.62676470533637 307.3678230131409 H 0.0 **** 0.06
9096 C 164.91616387035134 8.670600864436068 112.6668554276163 C 0.0 **** -0.24
9097 H 164.13960099752381 7.943126125241918 112.43269745998572 H 0.0 **** 0.06
9098 H 165.85119373779344 8.367326963367418 112.19495348688315 H 0.0 **** 0.06
9099 H 165.05305524071878 8.72111903851598 113.7471104981334 H 0.0 **** 0.06
9100 H 164.6199802242062 9.650395555475313 112.29230107814521 H 0.0 **** 0.06
9101 C 74.82261020102464 266.27894134891955 40.733131094099804 C 0.0 **** -0.24
9102 H 73.83818868744515 265.8727992716757 40.967528727586114 H 0.0 **** 0.06
9103 H 75.57144783251135 265.4933414870677 40.82985960577855 H 0.0 **** 0.06
9104 H 75.05444342185706 267.08977627089206 41.424763542378514 H 0.0 **** 0.06
9105 H 74.82422805831487 266.6603616040859 39.71265017029123 H 0.0 **** 0.06
9106 C 187.4712702519687 189.66477870401076 17.781872715046873 C 0.0 **** -0.24
9107 H 186.9595769642059 188.8081737349492 17.343871284422477 H 0.0 **** 0.06
9108 H 187.54730364413098 189.52869074143518 18.86078158087078 H 0.0 **** 0.06
9109 H 186.90580109017077 190.57239576359484 17.568147997006022 H 0.0 **** 0.06
9110 H 188.46975335165462 189.7491912419934 17.3534414242137 H 0.0 **** 0.06
9111 C 263.02850446234197 118.12120099970582 66.63242691834611 C 0.0 **** -0.24
9112 H 261.94807941073884 118.24962264555887 66.56976961998765 H 0.0 **** 0.06
9113 H 263.41605977044765 118.7084151620947 67.46507255819688 H 0.0 **** 0.06
9114 H 263.48901161149627 118.45788295730074 65.70430797704446 H 0.0 **** 0.06
9115 H 263.26047147850437 117.0674217991668 66.7913987910143 H 0.0 **** 0.06
9116 C 31.252285098270903 238.53651156033936 272.7998679559788 C 0.0 **** -0.24
9117 H 30.623069608706203 238.80167983968994 273.6500767571963 H 0.0 **** 0.06
9118 H 32.27948571116244 238.3990474201259 273.13786479290013 H 0.0 **** 0.06
9119 H 31.216824860841086 239.33550013141883 272.05916951156206 H 0.0 **** 0.06
9120 H 30.88892036799126 237.61074290011902 272.3535610982625 H 0.0 **** 0.06
9121 C 48.5591624804359 243.88213392825548 96.38874471659986 C 0.0 **** -0.24
9122 H 49.48681333398761 244.45204291779402 96.34783038471605 H 0.0 **** 0.06
9123 H 48.14982367320795 243.7803584781074 95.38338913220213 H 0.0 **** 0.06
9124 H 47.84114153582817 244.40376973948304 97.02221401914613 H 0.0 **** 0.06
9125 H 48.757060328486375 242.89374536260763 96.80244730424621 H 0.0 **** 0.06
9126 C 206.4973576235114 189.52662969176754 55.12916535797055 C 0.0 **** -0.24
9127 H 205.89797480332692 189.59882221761637 54.22210261476519 H 0.0 **** 0.06
9128 H 206.23156006582013 190.34038111058692 55.8049157873686 H 0.0 **** 0.06
9129 H 207.5545967161254 189.59722746748486 54.872900248289085 H 0.0 **** 0.06
9130 H 206.30481530881133 188.57138156614263 55.6170473347029 H 0.0 **** 0.06
9131 C 312.59361031078413 62.28638156561962 76.49862089927908 C 0.0 **** -0.24
9132 H 312.0873925311596 61.367943315931825 76.79577084620436 H 0.0 **** 0.06
9133 H 312.47362383647373 63.036308627831914 77.28097887408845 H 0.0 **** 0.06
9134 H 312.15705908479947 62.65680558188234 75.57105827310082 H 0.0 **** 0.06
9135 H 313.65339426438004 62.08457504247875 76.34707406444033 H 0.0 **** 0.06
9136 C 69.33031919441021 133.43738700573272 249.26559550395115 C 0.0 **** -0.24
9137 H 69.25434693976263 132.40288109755016 249.60090893014 H 0.0 **** 0.06
9138 H 69.79361849654947 133.4661976654218 248.27887362979286 H 0.0 **** 0.06
9139 H 69.93932042604206 134.00324643103633 249.97047135105325 H 0.0 **** 0.06
9140 H 68.33340650261209 133.87541598199422 249.21275562694174 H 0.0 **** 0.06
9141 C 183.06470209765308 228.2534200805579 64.04549661961465 C 0.0 **** -0.24
9142 H 183.10728464124844 228.15745142599317 62.9605122442583 H 0.0 **** 0.06
9143 H 183.06648284377127 227.26269557869145 64.49872629110692 H 0.0 **** 0.06
9144 H 182.1528681699353 228.781425891033 64.32770950077403 H 0.0 **** 0.06
9145 H 183.93148755153652 228.8147833458857 64.39443015434435 H 0.0 **** 0.06
9146 C 13.223552576523389 155.57409974031356 225.32318898735656 C 0.0 **** -0.24
9147 H 13.002354382306635 155.31102271971554 224.28925272925517 H 0.0 **** 0.06
9148 H 14.29158713859431 155.45980727901218 225.50739201556686 H 0.0 **** 0.06
9149 H 12.666892802304119 154.91835364913965 225.99180046218163 H 0.0 **** 0.06
9150 H 12.93234684359561 156.60860813118433 225.50428001120372 H 0.0 **** 0.06
9151 C 85.69063840723035 225.311098391133 254.118565561098 C 0.0 **** -0.24
9152 H 84.99809154972729 224.96479543227252 254.8863757363286 H 0.0 **** 0.06
9153 H 86.63886477598109 224.78344963809877 254.22009336936523 H 0.0 **** 0.06
9154 H 85.8559295723256 226.38169546287241 254.23485866410448 H 0.0 **** 0.06
9155 H 85.26786618613968 225.1128018285054 253.13276716377555 H 0.0 **** 0.06
9156 C 292.87500650821937 124.60195303571751 95.68552605177183 C 0.0 **** -0.24
9157 H 293.77274967162555 125.1310863897514 95.36540348539674 H 0.0 **** 0.06
9158 H 292.7184769000835 124.76314205325735 96.75213278927245 H 0.0 **** 0.06
9159 H 292.99294769771177 123.53603052203536 95.49181126543883 H 0.0 **** 0.06
9160 H 292.01522289781326 124.97873370249368 95.1307046151941 H 0.0 **** 0.06
9161 C 172.43301586252858 189.84871488968372 252.443517540673 C 0.0 **** -0.24
9162 H 171.53067403483584 190.24080370696106 251.9749559837666 H 0.0 **** 0.06
9163 H 172.96536574362216 190.65977351980058 252.94098096160513 H 0.0 **** 0.06
9164 H 173.07410251622218 189.40495614155725 251.68192419437875 H 0.0 **** 0.06
9165 H 172.16094173783074 189.08946162815977 253.1760593490332 H 0.0 **** 0.06
9166 C 70.87464152899446 279.47447605584387 183.99314652608626 C 0.0 **** -0.24
9167 H 70.01471725973681 280.1204161171287 184.16983279470162 H 0.0 **** 0.06
9168 H 70.831659140608 278.61998796114864 184.66884539565973 H 0.0 **** 0.06
9169 H 71.79235032036951 280.0343545371451 184.17192294553865 H 0.0 **** 0.06
9170 H 70.85836812553919 279.1236456588282 182.9612199011088 H 0.0 **** 0.06
9171 C 310.32436464439695 235.466469404568 272.1181986481649 C 0.0 **** -0.24
9172 H 311.2768751961221 235.11146138799432 272.51292046351045 H 0.0 **** 0.06
9173 H 309.66248257432323 234.61616204259957 271.95156471126154 H 0.0 **** 0.06
9174 H 310.49314500710926 235.98695776826605 271.1763497244899 H 0.0 **** 0.06
9175 H 309.86710966093534 236.14844408530826 272.83445472023755 H 0.0 **** 0.06
9176 C 88.26396860486969 151.73297049284554 146.4385672724733 C 0.0 **** -0.24
9177 H 87.94299327102735 152.27855358817936 147.32604024217804 H 0.0 **** 0.06
9178 H 88.67418612464641 152.43433607806458 145.7107814109633 H 0.0 **** 0.06
9179 H 87.40951025598739 151.2155617681056 146.0028420269681 H 0.0 **** 0.06
9180 H 89.02782209378347 151.00657912864233 146.71412630187456 H 0.0 **** 0.06
9181 C 194.64757913291783 203.68486992443388 253.61137527580584 C 0.0 **** -0.24
9182 H 195.52311701969762 203.66126915228665 252.961844086089 H 0.0 **** 0.06
9183 H 194.20330447727713 202.6907412746894 253.65787911270877 H 0.0 **** 0.06
9184 H 193.9186941601247 204.39154033842476 253.21343812441643 H 0.0 **** 0.06
9185 H 194.94599798653536 203.99652068502502 254.61221958943335 H 0.0 **** 0.06
9186 C 72.3067568746934 190.39947589682896 174.89535581536012 C 0.0 **** -0.24
9187 H 72.02913787484633 191.09697930137054 174.10488314474156 H 0.0 **** 0.06
9188 H 72.40478556107973 189.39780911743236 174.47795386826027 H 0.0 **** 0.06
9189 H 71.53576657927505 190.3986677232743 175.66645222002228 H 0.0 **** 0.06
9190 H 73.25687935655947 190.70640331253918 175.33311623270146 H 0.0 **** 0.06
9191 C 216.56673108669435 267.1585697887825 86.88617291491053 C 0.0 **** -0.24
9192 H 215.75028762313087 266.66212373740984 86.36302118488783 H 0.0 **** 0.06
9193 H 217.0253290380709 267.89659117397184 86.22623373985962 H 0.0 **** 0.06
9194 H 217.31276918873073 266.4201110330767 87.17873771731746 H 0.0 **** 0.06
9195 H 216.17966851970994 267.6559073863376 87.77482370552212 H 0.0 **** 0.06
9196 C 228.8719056295265 83.66151570992207 111.55574736093524 C 0.0 **** -0.24
9197 H 229.32205762139094 84.64214257895807 111.40443485765607 H 0.0 **** 0.06
9198 H 229.6432194525206 82.95058175072714 111.8545018568594 H 0.0 **** 0.06
9199 H 228.40863266283134 83.32672661395443 110.62759771255728 H 0.0 **** 0.06
9200 H 228.1151543875108 83.7257179586008 112.3375145758059 H 0.0 **** 0.06
9201 C 12.48524280805367 78.37552616045883 168.91522318422864 C 0.0 **** -0.24
9202 H 11.539088931559377 78.9078273033449 169.01213388798254 H 0.0 **** 0.06
9203 H 12.949031093280837 78.27692918408664 169.89654495173204 H 0.0 **** 0.06
9204 H 13.14875542910579 78.93354278274029 168.25404105802232 H 0.0 **** 0.06
9205 H 12.3034585583747 77.38562394661889 168.4970384854177 H 0.0 **** 0.06
9206 C 31.29515578040582 156.01146921860845 135.9989802423263 C 0.0 **** -0.24
9207 H 32.18800139741347 156.0517065556498 136.62266205972074 H 0.0 **** 0.06
9208 H 30.42090861457416 156.26914633905403 136.59818117021487 H 0.0 **** 0.06
9209 H 31.177256531160765 155.00436593600426 135.59787539397746 H 0.0 **** 0.06
9210 H 31.393145436824966 156.7196948053923 135.17660812910495 H 0.0 **** 0.06
9211 C 147.2327960991 298.8697261819005 42.44004112702146 C 0.0 **** -0.24
9212 H 146.8979688185204 299.4839713596423 41.603873735942955 H 0.0 **** 0.06
9213 H 147.9963227646063 299.40688164917356 43.00211085753443 H 0.0 **** 0.06
9214 H 147.64938608130535 297.9364798388407 42.06100102343706 H 0.0 **** 0.06
9215 H 146.38655726915258 298.65158122616026 43.092130825325825 H 0.0 **** 0.06
9216 C 287.48988915813493 26.473227581038657 214.22736067924967 C 0.0 **** -0.24
9217 H 287.8803865371664 27.421983154527055 214.59551011757847 H 0.0 **** 0.06
9218 H 288.26727343872096 25.711664914215078 214.2916050270212 H 0.0 **** 0.06
9219 H 287.1769714322651 26.588047583046773 213.18918621532703 H 0.0 **** 0.06
9220 H 286.6352560650416 26.172891900447922 214.83286303364412 H 0.0 **** 0.06
9221 C 259.4318259241386 285.0529758969915 282.86916459826256 C 0.0 **** -0.24
9222 H 258.8893498670259 285.1590084253474 283.8083829851745 H 0.0 **** 0.06
9223 H 260.460991986788 285.3858336769248 283.00463512934425 H 0.0 **** 0.06
9224 H 258.9514876203698 285.65810399720743 282.10165079600483 H 0.0 **** 0.06
9225 H 259.4265692732068 284.0058975912751 282.5635508765388 H 0.0 **** 0.06
9226 C 2.4351588213918944 90.73049718468141 165.69631904939172 C 0.0 **** -0.24
9227 H 1.528606549253567 90.1394203101477 165.82525878340113 H 0.0 **** 0.06
9228 H 3.241380170552688 90.29243122803089 166.28526361948298 H 0.0 **** 0.06
9229 H 2.2542675272260055 91.75190694015686 166.02908292195303 H 0.0 **** 0.06
9230 H 2.717269591101683 90.7360634049978 164.6427527783024 H 0.0 **** 0.06
9231 C 244.12898974549034 122.5860862335798 223.43840614878457 C 0.0 **** -0.24
9232 H 244.2678797896233 122.14690872528627 224.42644816363287 H 0.0 **** 0.06
9233 H 243.46712078658763 123.44932600803043 223.51441882648686 H 0.0 **** 0.06
9234 H 243.6869035045561 121.84610870187439 222.7711765342298 H 0.0 **** 0.06
9235 H 245.09403502144295 122.90254192423137 223.0428878050804 H 0.0 **** 0.06
9236 C 60.21427027852715 99.47696364751297 22.166293674649097 C 0.0 **** -0.24
9237 H 60.87252420976617 100.02481352889828 21.491581423395928 H 0.0 **** 0.06
9238 H 59.179181861986905 99.75656061528343 21.96970309482657 H 0.0 **** 0.06
9239 H 60.467482542038994 99.72038642979041 23.198286043740893 H 0.0 **** 0.06
9240 H 60.33881721662354 98.40622631134764 22.005247202161655 H 0.0 **** 0.06
9241 C 200.53591936509127 25.292811720772306 77.17512640536785 C 0.0 **** -0.24
9242 H 200.5152791284504 26.381402690082837 77.12805167571719 H 0.0 **** 0.06
9243 H 201.56077243515068 24.943024973194838 77.05006735169843 H 0.0 **** 0.06
9244 H 199.9124256450034 24.883424879150425 76.3789459267648 H 0.0 **** 0.06
9245 H 200.15396731226082 24.963643847753474 78.14133885059636 H 0.0 **** 0.06
9246 C 307.76591962056165 125.76955929196447 88.4586886882243 C 0.0 **** -0.24
9247 H 308.27173793612224 126.70798236310156 88.23307770015924 H 0.0 **** 0.06
9248 H 306.7813624290912 125.97877280175888 88.87681330278792 H 0.0 **** 0.06
9249 H 308.3550220387789 125.20381602433815 89.18085227654129 H 0.0 **** 0.06
9250 H 307.6558696279707 125.18673163093575 87.54384210573215 H 0.0 **** 0.06
9251 C 238.38554328844174 312.70819739489195 228.20492357998305 C 0.0 **** -0.24
9252 H 238.80765339171222 313.3779966813444 227.45673154597188 H 0.0 **** 0.06
9253 H 238.437849902107 311.6806729810929 227.84568000678357 H 0.0 **** 0.06
9254 H 237.34492605864332 312.9774772475537 228.38688647113727 H 0.0 **** 0.06
9255 H 238.9508053865173 312.7976986538754 229.13239737121705 H 0.0 **** 0.06
9256 C 188.4240088326826 202.52548970761086 284.43176784815205 C 0.0 **** -0.24
9257 H 188.7793366365155 203.23287856252608 283.6824491510314 H 0.0 **** 0.06
9258 H 187.33681588684556 202.4647698547069 284.3862162692405 H 0.0 **** 0.06
9259 H 188.72831556749918 202.86379541164587 285.42250798261296 H 0.0 **** 0.06
9260 H 188.85177272443343 201.54293071682002 284.23624745061807 H 0.0 **** 0.06
9261 C 298.29918049025196 292.0036689281143 41.505732150527336 C 0.0 **** -0.24
9262 H 297.2836079584921 292.2201147282707 41.836710997032554 H 0.0 **** 0.06
9263 H 298.2650497703224 291.39264835999825 40.60375858712342 H 0.0 **** 0.06
9264 H 298.83073641534907 291.4657901738824 42.29072010842313 H 0.0 **** 0.06
9265 H 298.8168445065416 292.93924234186323 41.291919831752125 H 0.0 **** 0.06
9266 C 268.8556307450801 33.60739409238789 251.22326231512434 C 0.0 **** -0.24
9267 H 269.1557380898786 34.355953658436135 251.95651091377476 H 0.0 **** 0.06
9268 H 267.768237749756 33.59510317634988 251.14123328092325 H 0.0 **** 0.06
9269 H 269.207136666283 32.62496949717095 251.54253471211763 H 0.0 **** 0.06
9270 H 269.2913319078009 33.85199106682083 250.25552053230228 H 0.0 **** 0.06
9271 C 169.78176579611852 65.5117506675665 273.4486274628829 C 0.0 **** -0.24
9272 H 170.12898670335562 64.6619641530298 274.0361960720531 H 0.0 **** 0.06
9273 H 170.51211384863115 66.31904047690213 273.51200916811143 H 0.0 **** 0.06
9274 H 168.82397692647345 65.85540166427123 273.8381641357391 H 0.0 **** 0.06
9275 H 169.66301141754894 65.20893749992825 272.40858326658145 H 0.0 **** 0.06
9276 C 34.90486138570225 309.2345856186584 301.6428868324476 C 0.0 **** -0.24
9277 H 34.332544736296484 308.6802012370195 302.3867698614347 H 0.0 **** 0.06
9278 H 34.53563676768903 310.2590792642922 301.59015824328105 H 0.0 **** 0.06
9279 H 34.794772390764535 308.7573652503174 300.66964098554666 H 0.0 **** 0.06
9280 H 35.958069103422304 309.24250617609886 301.9263407529334 H 0.0 **** 0.06
9281 C 248.22879202085437 270.9970239565123 38.57727158448941 C 0.0 **** -0.24
9282 H 249.09712821525753 270.88595317474704 39.22754913279863 H 0.0 **** 0.06
9283 H 247.76609790707488 271.9682957442915 38.75143133832452 H 0.0 **** 0.06
9284 H 247.51002775518427 270.2065421688954 38.79442780983186 H 0.0 **** 0.06
9285 H 248.54350849412089 270.92507621549635 37.53637946133094 H 0.0 **** 0.06
9286 C 187.13893441892134 21.35775440936888 179.26201199648676 C 0.0 **** -0.24
9287 H 187.3520250547474 21.609577379774663 180.30008565228468 H 0.0 **** 0.06
9288 H 187.9951655327709 21.623625836164877 178.64104821336997 H 0.0 **** 0.06
9289 H 186.26118921542724 21.910171482856384 178.92728063770772 H 0.0 **** 0.06
9290 H 186.9484313964274 20.287252336657986 179.17879982440576 H 0.0 **** 0.06
9291 C 305.8978279772522 262.9164702939887 170.1598573755138 C 0.0 **** -0.24
9292 H 306.4321878114632 262.0817697190663 169.70566592932977 H 0.0 **** 0.06
9293 H 306.5571721392005 263.7832562916827 170.21270303373592 H 0.0 **** 0.06
9294 H 305.5801102232726 262.63913219131445 171.16588787401247 H 0.0 **** 0.06
9295 H 305.02368582400214 263.1592617586175 169.55705463573463 H 0.0 **** 0.06
9296 C 254.57828445936823 231.84306681787092 41.87268707708495 C 0.0 **** -0.24
9297 H 253.7060042667709 232.39191741298453 42.228672530562136 H 0.0 **** 0.06
9298 H 254.7651938499421 232.09625489110235 40.82915891324592 H 0.0 **** 0.06
9299 H 254.39413214135163 230.77287606922152 41.960431193060316 H 0.0 **** 0.06
9300 H 255.44649822705816 232.1129541868321 42.473009496075036 H 0.0 **** 0.06
9301 C 135.09742499069824 18.54291645904408 63.94504265975843 C 0.0 **** -0.24
9302 H 135.91247744705026 18.025175753762824 64.45013116945677 H 0.0 **** 0.06
9303 H 134.41687809527795 17.811597046255145 63.510076930829996 H 0.0 **** 0.06
9304 H 135.50375918323175 19.176227472904316 63.15568086757719 H 0.0 **** 0.06
9305 H 134.55786285678352 19.159270127978743 64.66432856235781 H 0.0 **** 0.06
9306 C 104.11704566252274 160.0168500470861 312.1846789374773 C 0.0 **** -0.24
9307 H 105.07226669295426 160.4925411896853 312.4056723025496 H 0.0 **** 0.06
9308 H 104.10305193342964 159.69897876327246 311.1415656272795 H 0.0 **** 0.06
9309 H 103.30879476883621 160.72687252654873 312.35868445333546 H 0.0 **** 0.06
9310 H 103.98478413461439 159.14922559147055 312.8304606642073 H 0.0 **** 0.06
9311 C 99.1841373391683 266.2573873326719 87.69354117026319 C 0.0 **** -0.24
9312 H 98.11248096225265 266.0710428853571 87.631358359769 H 0.0 **** 0.06
9313 H 99.44591539308843 267.0900842294908 87.03924805013185 H 0.0 **** 0.06
9314 H 99.72734538201752 265.36534168916717 87.38213959571831 H 0.0 **** 0.06
9315 H 99.45021694875848 266.50518747684276 88.72095835838155 H 0.0 **** 0.06
9316 C 151.9135864190281 114.44150625345256 308.6209460620878 C 0.0 **** -0.24
9317 H 151.6718395855172 113.95632360242831 309.5665525411167 H 0.0 **** 0.06
9318 H 151.44184189500618 113.8962726986874 307.80273531288674 H 0.0 **** 0.06
9319 H 152.99531306466343 114.44458465331269 308.48093411646926 H 0.0 **** 0.06
9320 H 151.54557794215185 115.46699740547334 308.6348026199784 H 0.0 **** 0.06
9321 C 201.41875164083825 235.25644753347433 202.10789654305864 C 0.0 **** -0.24
9322 H 201.74499531129442 234.32604854303142 201.64483269344413 H 0.0 **** 0.06
9323 H 200.45152518307026 235.54603889416356 201.69728094098446 H 0.0 **** 0.06
9324 H 202.14898326123136 236.03977932525444 201.90488808433855 H 0.0 **** 0.06
9325 H 201.3285436114054 235.1136420640383 203.18455594025562 H 0.0 **** 0.06
9326 C 242.80906608006612 257.8105144004308 147.97491788037772 C 0.0 **** -0.24
9327 H 242.99734444719522 257.68755209337075 149.04160475043233 H 0.0 **** 0.06
9328 H 243.42270911136367 257.10445488731455 147.4144345630089 H 0.0 **** 0.06
9329 H 243.0621990299985 258.8279285241999 147.6764257343021 H 0.0 **** 0.06
9330 H 241.7561667136204 257.6227185109274 147.7671873504248 H 0.0 **** 0.06
9331 C 270.1685190725562 182.61158433345344 64.7194794590101 C 0.0 **** -0.24
9332 H 269.7621977233055 183.32031559656406 65.44033332973063 H 0.0 **** 0.06
9333 H 270.43287324360693 181.68535525250502 65.2315409009249 H 0.0 **** 0.06
9334 H 271.0572798069689 183.03584055453376 64.25326989036097 H 0.0 **** 0.06
9335 H 269.4207757170668 182.4025444463606 63.95447452462585 H 0.0 **** 0.06
9336 C 299.9210921906053 64.39651260689254 89.51422361456497 C 0.0 **** -0.24
9337 H 300.7983256228192 65.0341784884721 89.41284279139987 H 0.0 **** 0.06
9338 H 299.15862402587277 64.71232949625062 88.80210540766896 H 0.0 **** 0.06
9339 H 299.5279665727478 64.4766512943635 90.52741875210651 H 0.0 **** 0.06
9340 H 300.1983599402667 63.36146784606595 89.31286003566885 H 0.0 **** 0.06
9341 C 25.621971952895734 202.55336180396176 137.34183525280676 C 0.0 **** -0.24
9342 H 26.13923102190583 202.29326440976246 136.4183636774074 H 0.0 **** 0.06
9343 H 24.73400939756999 201.92949003674647 137.449380004245 H 0.0 **** 0.06
9344 H 25.32632664750875 203.6027427365815 137.3089130908443 H 0.0 **** 0.06
9345 H 26.286472810379962 202.39012384179858 138.18975702036326 H 0.0 **** 0.06
9346 C 80.77535941468287 224.52080986013755 235.84590529584526 C 0.0 **** -0.24
9347 H 81.13730130691917 224.64781125706537 236.86642872232883 H 0.0 **** 0.06
9348 H 81.32230036001192 225.19117408193728 235.18187760927492 H 0.0 **** 0.06
9349 H 79.7127574100634 224.7557067828492 235.80602101999904 H 0.0 **** 0.06
9350 H 80.93253126228859 223.48905653089295 235.53064281769028 H 0.0 **** 0.06
9351 C 139.03511094374812 130.37789826588696 274.9416494851564 C 0.0 **** -0.24
9352 H 138.8980590440489 131.1780737117597 274.21382643959515 H 0.0 **** 0.06
9353 H 139.84157892318194 130.64374050183017 275.62599198673274 H 0.0 **** 0.06
9354 H 139.28932471372474 129.45405781105313 274.4216259039269 H 0.0 **** 0.06
9355 H 138.112168851487 130.23636045809164 275.5040961881281 H 0.0 **** 0.06
9356 C 244.0255020033458 199.35006391525576 284.6998595734233 C 0.0 **** -0.24
9357 H 244.89406654764736 198.83660109363353 284.2868681504831 H 0.0 **** 0.06
9358 H 243.66197053097008 198.8041702819574 285.5720891145604 H 0.0 **** 0.06
9359 H 243.23930027500055 199.39798858131888 283.9470771253562 H 0.0 **** 0.06
9360 H 244.30802734992525 200.36092630743752 284.99601832861504 H 0.0 **** 0.06
9361 C 62.412054252986735 279.78871593758697 6.505537267039742 C 0.0 **** -0.24
9362 H 61.51899086482979 279.31973999998576 6.092644176663427 H 0.0 **** 0.06
9363 H 62.15708979691439 280.29999577748646 7.433998576399361 H 0.0 **** 0.06
9364 H 62.80792793752755 280.51025442356337 5.789631130051589 H 0.0 **** 0.06
9365 H 63.163933165267196 279.0254989351468 6.705145023469726 H 0.0 **** 0.06
9366 C 10.006644024588581 2.9736765945442585 118.93198192029786 C 0.0 **** -0.24
9367 H 9.955667847614663 3.4036164051013316 117.93215816878902 H 0.0 **** 0.06
9368 H 10.2899616378553 1.9226059561540296 118.862375878911 H 0.0 **** 0.06
9369 H 9.031315840423304 3.056110294066684 119.4125794364104 H 0.0 **** 0.06
9370 H 10.749395067327555 3.5115669737265307 119.52195156594803 H 0.0 **** 0.06
9371 C 103.38944911348904 303.9727753270599 115.36158654627545 C 0.0 **** -0.24
9372 H 102.33998733019354 303.8592910296727 115.63253603900154 H 0.0 **** 0.06
9373 H 104.00443492115818 303.92373553883544 116.26054033168671 H 0.0 **** 0.06
9374 H 103.53595414932403 304.9367702487986 114.87312629112049 H 0.0 **** 0.06
9375 H 103.67683080257896 303.17211081634036 114.68009226462732 H 0.0 **** 0.06
9376 C 263.4062619936831 104.97201549961872 293.95333294960665 C 0.0 **** -0.24
9377 H 262.94098602906683 104.80964982942433 294.9255253253139 H 0.0 **** 0.06
9378 H 264.3904947169667 105.41941931932996 294.092412491701 H 0.0 **** 0.06
9379 H 262.7836131741228 105.64008149567366 293.3598831929055 H 0.0 **** 0.06
9380 H 263.5107208912185 104.01804449253646 293.43742404102477 H 0.0 **** 0.06
9381 C 138.9452237778761 66.3630922550334 253.75198700266466 C 0.0 **** -0.24
9382 H 139.25115287673202 67.34297818834574 254.11863846462978 H 0.0 **** 0.06
9383 H 139.43436631876648 66.16288801841714 252.79830089514184 H 0.0 **** 0.06
9384 H 137.86386340108828 66.34697292333234 253.61681211015775 H 0.0 **** 0.06
9385 H 139.23248198670728 65.59928471928131 254.474201040933 H 0.0 **** 0.06
9386 C 84.49684555654477 85.79611693776977 141.82329599007332 C 0.0 **** -0.24
9387 H 84.82406833829478 84.76892150461012 141.98816002168087 H 0.0 **** 0.06
9388 H 84.64802745711316 86.0617719494847 140.77600672378966 H 0.0 **** 0.06
9389 H 85.07612728420213 86.46808448795753 142.45687285466954 H 0.0 **** 0.06
9390 H 83.4391282490692 85.88437412212997 142.07162665141237 H 0.0 **** 0.06
9391 C 223.85800406019746 305.4738813166256 162.31746343233397 C 0.0 **** -0.24
9392 H 223.78435167227252 304.4303171525255 162.6246889430164 H 0.0 **** 0.06
9393 H 223.9373755183929 306.10785550127605 163.2011167914643 H 0.0 **** 0.06
9394 H 222.96817129308133 305.7499336502102 161.7509194273539 H 0.0 **** 0.06
9395 H 224.7418692348989 305.60676010587554 161.69383860215373 H 0.0 **** 0.06
9396 C 305.2673095721757 199.69638046574755 70.60073625817054 C 0.0 **** -0.24
9397 H 305.17041365423995 200.36620130027381 71.45518963947896 H 0.0 **** 0.06
9398 H 305.7263942400623 200.23282412996866 69.76985009486557 H 0.0 **** 0.06
9399 H 304.2799615581842 199.3421697250372 70.30284868763738 H 0.0 **** 0.06
9400 H 305.89125531316245 198.84591203969939 70.87493785761893 H 0.0 **** 0.06
9401 C 171.48067341610493 14.099747326689226 259.65851535766353 C 0.0 **** -0.24
9402 H 172.5591504459469 14.180826753973179 259.79388437962234 H 0.0 **** 0.06
9403 H 171.25935869072197 13.25944666120779 259.00050780932713 H 0.0 **** 0.06
9404 H 171.1017062712262 15.01969731415329 259.2130557357435 H 0.0 **** 0.06
9405 H 171.00328215080566 13.940904415553632 260.6257205384121 H 0.0 **** 0.06
9406 C 267.4594794213698 79.95546788328355 117.61229677311789 C 0.0 **** -0.24
9407 H 268.11062749455823 79.08208020803647 117.59548901130293 H 0.0 **** 0.06
9408 H 267.83648509549437 80.70331300792131 116.91319037891262 H 0.0 **** 0.06
9409 H 267.4411693526679 80.37542049181084 118.61830716115719 H 0.0 **** 0.06
9410 H 266.4503594392353 79.66224628943553 117.32245317832923 H 0.0 **** 0.06
9411 C 181.16561315910968 219.65228031811864 34.78028990620831 C 0.0 **** -0.24
9412 H 181.0619351356945 220.6728735848066 34.414275434642406 H 0.0 **** 0.06
9413 H 180.23559629624998 219.3412872419171 35.2568466124124 H 0.0 **** 0.06
9414 H 181.9778830502632 219.60752929835223 35.50614824127541 H 0.0 **** 0.06
9415 H 181.38626859676128 218.98684626138078 33.945640252737036 H 0.0 **** 0.06
9416 C 172.35712811601496 145.3395054606796 303.43257235416036 C 0.0 **** -0.24
9417 H 171.830215507778 146.2272817522541 303.7841156872387 H 0.0 **** 0.06
9418 H 171.6419731828654 144.64598192576594 302.988967932378 H 0.0 **** 0.06
9419 H 172.8565298353078 144.8582490967651 304.27238993959145 H 0.0 **** 0.06
9420 H 173.09648390301584 145.62798988823678 302.6857383009026 H 0.0 **** 0.06
9421 C 36.924029604852876 266.86832951479795 164.15373131485313 C 0.0 **** -0.24
9422 H 36.34590551864915 267.7821755990593 164.01790339514667 H 0.0 **** 0.06
9423 H 36.263348123395986 266.0679036010889 164.48991087416948 H 0.0 **** 0.06
9424 H 37.700069714882375 267.0366991880454 164.899898016948 H 0.0 **** 0.06
9425 H 37.38476572844331 266.58573358788567 163.20673125135926 H 0.0 **** 0.06
9426 C 111.26623890970404 170.23984320189436 298.15807075309385 C 0.0 **** -0.24
9427 H 112.21424316642106 170.4134073660574 297.64829848745296 H 0.0 **** 0.06
9428 H 111.06706546259625 169.16896498757325 298.1977461566756 H 0.0 **** 0.06
9429 H 110.4651511025915 170.73855639114203 297.6122385156807 H 0.0 **** 0.06
9430 H 111.32029618781758 170.63792552386286 299.17032695403213 H 0.0 **** 0.06
9431 C 55.784704007323825 240.50118505858592 166.39152633540908 C 0.0 **** -0.24
9432 H 55.83386206194467 240.37232519303058 167.47225246429122 H 0.0 **** 0.06
9433 H 54.81838891574969 240.92554434426935 166.11862765206962 H 0.0 **** 0.06
9434 H 55.90747283364166 239.53339425117332 165.90414545417036 H 0.0 **** 0.06
9435 H 56.58070906915896 241.17307641363732 166.06928372171018 H 0.0 **** 0.06
9436 C 269.7242245689886 15.241065914338492 188.7444378163445 C 0.0 **** -0.24
9437 H 269.2048982993565 16.193278190708497 188.85793830837292 H 0.0 **** 0.06
9438 H 270.1005510530091 15.152559923542071 187.72483817865646 H 0.0 **** 0.06
9439 H 269.03148355653366 14.424553884319323 188.94832588530153 H 0.0 **** 0.06
9440 H 270.55719078978933 15.196157726581873 189.44561174404032 H 0.0 **** 0.06
9441 C 21.633443393946095 40.02506487824698 306.31279734350136 C 0.0 **** -0.24
9442 H 20.931744677469652 40.74562331037157 305.8916408274827 H 0.0 **** 0.06
9443 H 22.501836151528977 39.93995048630572 305.65827773630394 H 0.0 **** 0.06
9444 H 21.147804847579266 39.05440841745221 306.40088580401766 H 0.0 **** 0.06
9445 H 21.95307043236832 40.36252763585736 307.298270726914 H 0.0 **** 0.06
9446 C 238.07736776450653 251.46035591594256 202.49811330359216 C 0.0 **** -0.24
9447 H 238.78484821789726 250.72389049913122 202.11771029931487 H 0.0 **** 0.06
9448 H 238.21412811002438 251.57102468199398 203.57474341229965 H 0.0 **** 0.06
9449 H 237.06051951600634 251.1264676922589 202.29284849592864 H 0.0 **** 0.06
9450 H 238.25235582436304 252.41876946778964 202.00954192551103 H 0.0 **** 0.06
9451 C 6.454101750343369 121.09656091132734 190.43629462342972 C 0.0 **** -0.24
9452 H 5.596758587919368 120.61375690583387 189.96848553948416 H 0.0 **** 0.06
9453 H 6.421152027185201 122.16730118564402 190.23544410742102 H 0.0 **** 0.06
9454 H 7.374288157769129 120.67716146084521 190.02865822952555 H 0.0 **** 0.06
9455 H 6.423056518157978 120.9272725364876 191.51292036738113 H 0.0 **** 0.06
9456 C 193.23666558573234 235.2967087400889 22.350751508394296 C 0.0 **** -0.24
9457 H 193.11715299753354 235.36469031632342 21.26945340124186 H 0.0 **** 0.06
9458 H 193.51896911223997 236.27273696231282 22.746986266845795 H 0.0 **** 0.06
9459 H 194.01413206809906 234.5698392569131 22.585099479174062 H 0.0 **** 0.06
9460 H 192.2953406741355 234.97989378256688 22.80059820083349 H 0.0 **** 0.06
9461 C 58.461813664237724 301.84742175264614 23.680836143172684 C 0.0 **** -0.24
9462 H 59.38193254858757 301.4856611577092 23.22148348744969 H 0.0 **** 0.06
9463 H 57.62280278644667 301.2419555710307 23.337833519048644 H 0.0 **** 0.06
9464 H 58.30012729643923 302.8878920504868 23.397330530888922 H 0.0 **** 0.06
9465 H 58.54442698030857 301.77483605790354 24.76550277817509 H 0.0 **** 0.06
9466 C 178.78685359874356 126.15508352153961 173.3102723278791 C 0.0 **** -0.24
9467 H 178.29706574713805 125.77314026453394 174.20583838210297 H 0.0 **** 0.06
9468 H 178.73894447148422 127.24365533906101 173.30703814698876 H 0.0 **** 0.06
9469 H 178.2813837846537 125.76611362911981 172.42650593420035 H 0.0 **** 0.06
9470 H 179.82935705020174 125.83561872152836 173.30284609713397 H 0.0 **** 0.06
9471 C 75.80256218991832 310.6972565808691 72.17406895029626 C 0.0 **** -0.24
9472 H 76.7473166511968 310.88561058208086 71.66251921141156 H 0.0 **** 0.06
9473 H 74.98462477548938 310.74403655274216 71.4554505758525 H 0.0 **** 0.06
9474 H 75.65194675128595 311.4524777609776 72.94575950402825 H 0.0 **** 0.06
9475 H 75.82934351128637 309.7091602051151 72.63255740076184 H 0.0 **** 0.06
9476 C 139.26392502189645 261.03836430603354 90.36123320806314 C 0.0 **** -0.24
9477 H 138.53482397284822 261.2493188900768 91.14279585328825 H 0.0 **** 0.06
9478 H 139.5828571023556 261.9732498445504 89.90111723913435 H 0.0 **** 0.06
9479 H 138.81145640735053 260.39693525338805 89.60568951754999 H 0.0 **** 0.06
9480 H 140.12763802878104 260.5338230823321 90.7962393607495 H 0.0 **** 0.06
9481 C 62.59443850346838 183.03848663395985 128.5461135295232 C 0.0 **** -0.24
9482 H 61.85210374612629 183.03095859861065 129.34420925469684 H 0.0 **** 0.06
9483 H 62.45583649135369 183.92850513047085 127.93067635395539 H 0.0 **** 0.06
9484 H 62.47416940763429 182.1477583979186 127.93016718428285 H 0.0 **** 0.06
9485 H 63.59413032403185 183.04920926045224 128.98013154536565 H 0.0 **** 0.06
9486 C 151.80179970493407 264.55331349642535 67.39759914895268 C 0.0 **** -0.24
9487 H 151.04434121183363 264.27071589442016 68.12993348836949 H 0.0 **** 0.06
9488 H 152.76074641730037 264.6849907691803 67.90052822597667 H 0.0 **** 0.06
9489 H 151.51107655794624 265.48830293128583 66.91899163016444 H 0.0 **** 0.06
9490 H 151.88931548794795 263.77096492263917 66.64495378876774 H 0.0 **** 0.06
9491 C 57.18763340548844 171.3501959253573 48.566686667252725 C 0.0 **** -0.24
9492 H 57.122942895778664 170.2652325813982 48.479571606337856 H 0.0 **** 0.06
9493 H 56.815839112171034 171.80935457874233 47.65016351490635 H 0.0 **** 0.06
9494 H 58.22580039759799 171.64066995579748 48.72456471994656 H 0.0 **** 0.06
9495 H 56.58392718199616 171.682756472976 49.41133785536863 H 0.0 **** 0.06
9496 C 184.98817375328753 144.7376416075438 291.2595195290802 C 0.0 **** -0.24
9497 H 184.92161721711108 144.31370858792542 292.26083284984645 H 0.0 **** 0.06
9498 H 184.03496405537953 145.1949435597223 290.99454680297936 H 0.0 **** 0.06
9499 H 185.2237665229614 143.94821708162604 290.5456124511977 H 0.0 **** 0.06
9500 H 185.7731657420569 145.4931462923539 291.2369231560737 H 0.0 **** 0.06
9501 C 110.44122271718334 158.4924367103285 13.638849722662314 C 0.0 **** -0.24
9502 H 110.71033902539537 158.9435318978293 12.68342945007413 H 0.0 **** 0.06
9503 H 111.34154395124037 158.33981557936164 14.234701901874644 H 0.0 **** 0.06
9504 H 109.95408734429577 157.53348864028226 13.463906661617273 H 0.0 **** 0.06
9505 H 109.76035546309552 159.15462564833365 14.173352240080703 H 0.0 **** 0.06
9506 C 157.19678863512462 3.270673887111272 166.83590605753585 C 0.0 **** -0.24
9507 H 157.08573689089326 2.3334086268079375 167.38164655837352 H 0.0 **** 0.06
9508 H 157.97167681243883 3.1589036679346805 166.07672025278782 H 0.0 **** 0.06
9509 H 157.47748212374637 4.0633958184348415 167.52849428257264 H 0.0 **** 0.06
9510 H 156.25174439064898 3.5248802473880403 166.3556250422369 H 0.0 **** 0.06
9511 C 296.5554636633359 79.17112879805643 50.81375717736273 C 0.0 **** -0.24
9512 H 295.78311306520345 79.75097932506682 51.31893859941965 H 0.0 **** 0.06
9513 H 297.1510237038583 79.83140874036593 50.18309008038659 H 0.0 **** 0.06
9514 H 296.08864080179586 78.4030733034165 50.19808070584534 H 0.0 **** 0.06
9515 H 297.1993799791914 78.70015498536617 51.55656118672596 H 0.0 **** 0.06
9516 C 93.71836943519432 43.88893853942224 109.21238790406971 C 0.0 **** -0.24
9517 H 94.28366513483508 43.81356898879113 108.2824666379073 H 0.0 **** 0.06
9518 H 94.3476837200732 44.333792183366654 109.9838016194949 H 0.0 **** 0.06
9519 H 93.40296059272978 42.895009507328524 109.52766030250814 H 0.0 **** 0.06
9520 H 92.84019684662704 44.515942403108 109.05309441165389 H 0.0 **** 0.06
9521 C 146.1842771598975 205.08346769695618 290.1534156824411 C 0.0 **** -0.24
9522 H 146.6781666776182 205.9568924426975 290.58019046086605 H 0.0 **** 0.06
9523 H 146.07641863809556 205.21858336118856 289.0770260465263 H 0.0 **** 0.06
9524 H 145.2003975685944 204.96675988591278 290.60627170853274 H 0.0 **** 0.06
9525 H 146.7839004235317 204.1953564697058 290.3502194802031 H 0.0 **** 0.06
9526 C 224.03053440030124 233.91079273535206 149.24563215640586 C 0.0 **** -0.24
9527 H 224.69894084768117 234.28887231256138 150.02003838717633 H 0.0 **** 0.06
9528 H 224.60873579075496 233.673599714619 148.35217539960894 H 0.0 **** 0.06
9529 H 223.28558693398713 234.6700493849565 149.0071055051692 H 0.0 **** 0.06
9530 H 223.53152746594486 233.0108240785247 149.60584160774687 H 0.0 **** 0.06
9531 C 42.303908301587654 274.43068870836584 239.90621849877607 C 0.0 **** -0.24
9532 H 43.13161580768136 274.245047581603 239.2216105766645 H 0.0 **** 0.06
9533 H 41.660993520151266 273.55127262039946 239.9450293026818 H 0.0 **** 0.06
9534 H 41.72878905333431 275.2883934298191 239.556647599881 H 0.0 **** 0.06
9535 H 42.6965371526702 274.6385830708413 240.90222345616726 H 0.0 **** 0.06
9536 C 134.637839855922 254.7370593266931 276.0103446602121 C 0.0 **** -0.24
9537 H 135.33423595363553 255.1231519852199 275.26698251603375 H 0.0 **** 0.06
9538 H 134.23473390906094 255.5647699385699 276.5952686688541 H 0.0 **** 0.06
9539 H 135.1580997722485 254.0440543940319 276.6715051040669 H 0.0 **** 0.06
9540 H 133.82150990806065 254.21736213701402 275.507377858825 H 0.0 **** 0.06
9541 C 31.774544026028963 203.419829909076 249.10825398859853 C 0.0 **** -0.24
9542 H 32.704310690245705 203.22627484022973 249.64494453609257 H 0.0 **** 0.06
9543 H 31.28767886364264 204.2983570520811 249.53025246883408 H 0.0 **** 0.06
9544 H 31.1149351037117 202.55746702349035 249.20350981186584 H 0.0 **** 0.06
9545 H 31.993748519837226 203.5955781056213 248.05456697806682 H 0.0 **** 0.06
9546 C 35.224090866812446 284.9325239079472 92.85791133278619 C 0.0 **** -0.24
9547 H 35.112878151212726 284.4184776120382 93.81233025805065 H 0.0 **** 0.06
9548 H 34.3257529715828 284.78477353953065 92.25912405724628 H 0.0 **** 0.06
9549 H 36.086510834691126 284.52998387437185 92.32670546893314 H 0.0 **** 0.06
9550 H 35.372579598189645 285.9982439020069 93.03498291613468 H 0.0 **** 0.06
9551 C 58.62944053457724 94.67136588463842 103.55740791669112 C 0.0 **** -0.24
9552 H 58.64135456556133 94.94612602834908 102.50223765869288 H 0.0 **** 0.06
9553 H 59.58663105563522 94.22494227602857 103.8271126045835 H 0.0 **** 0.06
9554 H 57.82992170145303 93.95367596214291 103.73765817245209 H 0.0 **** 0.06
9555 H 58.461072532767844 95.56254794749404 104.16220713775667 H 0.0 **** 0.06
9556 C 173.33359880864305 66.41254350841794 10.405744143981977 C 0.0 **** -0.24
9557 H 173.5287893664775 65.36636332447694 10.170961229228965 H 0.0 **** 0.06
9558 H 172.4602208055682 66.48183181483293 11.055917470292187 H 0.0 **** 0.06
9559 H 173.14517472555883 66.9617833206072 9.48354061903619 H 0.0 **** 0.06
9560 H 174.19854825721683 66.83855081079494 10.913286827604168 H 0.0 **** 0.06
9561 C 204.32219082386843 115.07867337174864 103.40614301930037 C 0.0 **** -0.24
9562 H 203.311572024381 115.32305972221698 103.07718054557071 H 0.0 **** 0.06
9563 H 204.31132752511735 114.84635398667672 104.47121815452817 H 0.0 **** 0.06
9564 H 204.9784236542866 115.93087808988994 103.22576301324565 H 0.0 **** 0.06
9565 H 204.68617274800357 114.215204807263 102.84847416479957 H 0.0 **** 0.06
9566 C 35.787126693406435 13.240697543123233 108.711867857384 C 0.0 **** -0.24
9567 H 35.83958688377879 13.057322335235696 107.63806116271323 H 0.0 **** 0.06
9568 H 35.622429195194684 14.303665267403048 108.89034391925787 H 0.0 **** 0.06
9569 H 36.7233655467777 12.934760284197495 109.17835531852262 H 0.0 **** 0.06
9570 H 34.96327505851414 12.667732856225044 109.13779543654383 H 0.0 **** 0.06
9571 C 86.69225942572987 303.9053619011273 7.492708387208523 C 0.0 **** -0.24
9572 H 86.12191540320961 303.7718851830672 8.411509784714482 H 0.0 **** 0.06
9573 H 87.59202533709441 304.48320226553125 7.704170365746364 H 0.0 **** 0.06
9574 H 86.08301313681292 304.4356197627544 6.76130910777988 H 0.0 **** 0.06
9575 H 86.9718422967018 302.9298028113873 7.093594073442588 H 0.0 **** 0.06
9576 C 202.32330354209034 200.97897095890477 147.11470650656753 C 0.0 **** -0.24
9577 H 202.61120247030902 201.87565735777827 147.66474020126466 H 0.0 **** 0.06
9578 H 201.33622299418556 200.65386379282137 147.44293153742763 H 0.0 **** 0.06
9579 H 203.0485791636134 200.18806263655586 147.30355471135283 H 0.0 **** 0.06
9580 H 202.29690508599163 201.20110328079045 146.0478214594115 H 0.0 **** 0.06
9581 C 168.48995692911495 178.6729848364974 68.07265034595855 C 0.0 **** -0.24
9582 H 168.04111160775443 178.10596648265982 68.88823076138652 H 0.0 **** 0.06
9583 H 168.16511767589918 179.7123171869386 68.13213210868412 H 0.0 **** 0.06
9584 H 168.17631562734272 178.24773051526915 67.11963185551295 H 0.0 **** 0.06
9585 H 169.57507092280008 178.62590390677855 68.15165887037494 H 0.0 **** 0.06
9586 C 114.28081121030061 297.5708592247356 182.78672729411693 C 0.0 **** -0.24
9587 H 115.13242429031592 296.9081376485244 182.63009515100237 H 0.0 **** 0.06
9588 H 114.00978193055565 297.56891362675145 183.84302445834805 H 0.0 **** 0.06
9589 H 113.43579255087806 297.22295516948924 182.19374788698735 H 0.0 **** 0.06
9590 H 114.54778240107876 298.58283996629405 182.48153110500874 H 0.0 **** 0.06
9591 C 258.41960395999484 92.61805540667677 32.48547725182246 C 0.0 **** -0.24
9592 H 257.42911154976025 92.41273261757541 32.890743441692564 H 0.0 **** 0.06
9593 H 258.85500204752117 93.47006583656272 33.008535649233494 H 0.0 **** 0.06
9594 H 258.3377430603498 92.84636106611106 31.423518372170577 H 0.0 **** 0.06
9595 H 259.05636423149974 91.74405328660475 32.62210814245 H 0.0 **** 0.06
9596 C 266.98473898065987 127.79026177314174 58.1242542052766 C 0.0 **** -0.24
9597 H 267.7913387534417 127.14769349781699 57.771433900473454 H 0.0 **** 0.06
9598 H 266.44192871305046 128.19499376020366 57.27031019070267 H 0.0 **** 0.06
9599 H 267.4039783938439 128.60868356669738 58.71119410091063 H 0.0 **** 0.06
9600 H 266.30359992884377 127.20964730490769 58.74640835134957 H 0.0 **** 0.06
9601 C 234.86074008626105 136.4871610310683 241.7045051939643 C 0.0 **** -0.24
9602 H 235.20354680380635 135.57119173244715 241.22251852236982 H 0.0 **** 0.06
9603 H 234.08446252023418 136.24658967077923 242.43068004186426 H 0.0 **** 0.06
9604 H 234.45789816966138 137.16482247542197 240.95167273734955 H 0.0 **** 0.06
9605 H 235.699071286858 136.96560069066803 242.21183313976962 H 0.0 **** 0.06
9606 C 28.45539313421753 238.07050523640225 143.4043879042343 C 0.0 **** -0.24
9607 H 27.83491789405801 238.12798811699437 144.29878633075302 H 0.0 **** 0.06
9608 H 27.826523187424954 238.16421784822606 142.51891464809515 H 0.0 **** 0.06
9609 H 28.974288469976045 237.11175915590582 143.38264078303408 H 0.0 **** 0.06
9610 H 29.186958032577706 238.87831820387936 143.41803921376783 H 0.0 **** 0.06
9611 C 157.95324763394564 92.69625257291247 268.7203741757633 C 0.0 **** -0.24
9612 H 158.52338128504522 92.44745288278381 269.6149929104135 H 0.0 **** 0.06
9613 H 158.63169590587995 92.80278653996515 267.8738466766349 H 0.0 **** 0.06
9614 H 157.41899121523596 93.63348337422883 268.87838954595054 H 0.0 **** 0.06
9615 H 157.2365047898832 91.90089241679809 268.5142473442687 H 0.0 **** 0.06
9616 C 181.50882158219343 183.46538407822743 125.65832878861585 C 0.0 **** -0.24
9617 H 180.80969407011872 182.72519737677965 125.27076884073787 H 0.0 **** 0.06
9618 H 180.95606598827686 184.3299809721276 126.02525086831912 H 0.0 **** 0.06
9619 H 182.185443906111 183.77717387598574 124.86364099093493 H 0.0 **** 0.06
9620 H 182.08409183522775 183.02813445453887 126.47460218273903 H 0.0 **** 0.06
9621 C 246.53773419676872 120.980299076732 142.27991277429703 C 0.0 **** -0.24
9622 H 245.85900863642786 121.65027731040135 141.75202251054603 H 0.0 **** 0.06
9623 H 246.3473295260428 119.95244041678453 141.9695629864615 H 0.0 **** 0.06
9624 H 246.3752974039995 121.07057267372963 143.35432950890302 H 0.0 **** 0.06
9625 H 247.56773021985086 121.2463165310115 142.04381268273912 H 0.0 **** 0.06
9626 C 107.90687985057158 255.7955248064767 39.58489247313116 C 0.0 **** -0.24
9627 H 108.15139426643043 256.42573616683643 38.729498006155296 H 0.0 **** 0.06
9628 H 107.44001538163295 256.40281129579034 40.36086608160451 H 0.0 **** 0.06
9629 H 108.81929872738405 255.34442321051537 39.9759097321739 H 0.0 **** 0.06
9630 H 107.21841718623045 255.01080267536003 39.272510202014786 H 0.0 **** 0.06
9631 C 74.34574093576242 285.2108289508487 50.17009909174482 C 0.0 **** -0.24
9632 H 74.67567836134552 284.4237301017024 50.84731400731033 H 0.0 **** 0.06
9633 H 75.19428750854098 285.841958220357 49.904724051499585 H 0.0 **** 0.06
9634 H 73.58294850797827 285.8167568098305 50.66100692451167 H 0.0 **** 0.06
9635 H 73.92854335388091 284.7634511678708 49.26762158540433 H 0.0 **** 0.06
9636 C 39.73833681622918 249.75298611742204 310.2554137884894 C 0.0 **** -0.24
9637 H 40.55418788299559 249.2701432336553 309.7168711815984 H 0.0 **** 0.06
9638 H 38.797299246054166 249.26599391762144 310.00088238359365 H 0.0 **** 0.06
9639 H 39.69108945565202 250.80520815630655 309.9763496129958 H 0.0 **** 0.06
9640 H 39.913672332829066 249.66931885663166 311.32852217138657 H 0.0 **** 0.06
9641 C 211.00590588892265 110.72621562327262 183.1254366431462 C 0.0 **** -0.24
9642 H 211.72919257028775 109.98621488942305 183.46806127821498 H 0.0 **** 0.06
9643 H 210.0488298824206 110.55193691430065 183.61669197136496 H 0.0 **** 0.06
9644 H 210.8822212547925 110.64056649891725 182.04538076799196 H 0.0 **** 0.06
9645 H 211.36512780514278 111.72535491203377 183.37104536537538 H 0.0 **** 0.06
9646 C 9.816317160988945 306.1898205006913 290.7879661688686 C 0.0 **** -0.24
9647 H 9.968399954913366 305.83753307196434 289.76801188618117 H 0.0 **** 0.06
9648 H 10.499933693323285 305.6696016991551 291.4579752580945 H 0.0 **** 0.06
9649 H 8.788015975815654 305.99195681606227 291.09143443288787 H 0.0 **** 0.06
9650 H 10.008198171829562 307.2617580050148 290.83429125978364 H 0.0 **** 0.06
9651 C 257.8613608267671 244.04226435096507 194.516077173312 C 0.0 **** -0.24
9652 H 256.8266749950383 244.37727234950506 194.44874057821522 H 0.0 **** 0.06
9653 H 257.8856495835304 243.00067002641183 194.83727130755193 H 0.0 **** 0.06
9654 H 258.3959776025591 244.65895589405636 195.23881903273355 H 0.0 **** 0.06
9655 H 258.3369599950969 244.13301613913166 193.53899534534202 H 0.0 **** 0.06
9656 C 218.7490139791003 190.42932753913954 29.780760234075558 C 0.0 **** -0.24
9657 H 219.06788217424435 191.4274146202157 29.479488587578203 H 0.0 **** 0.06
9658 H 218.39993603475017 189.88011828207152 28.90644385551579 H 0.0 **** 0.06
9659 H 217.9393503753218 190.5117537936478 30.50604715145502 H 0.0 **** 0.06
9660 H 219.58795721778134 189.90065431591262 30.232549136381863 H 0.0 **** 0.06
9661 C 298.5234885176203 151.59061113310912 280.3577021963389 C 0.0 **** -0.24
9662 H 297.6755651891712 152.2520006242429 280.5397250699421 H 0.0 **** 0.06
9663 H 298.2206240925385 150.55741686384573 280.5316047496058 H 0.0 **** 0.06
9664 H 299.337781696788 151.84978896842057 281.03442430948576 H 0.0 **** 0.06
9665 H 298.8569595579765 151.7035120345276 279.327241720984 H 0.0 **** 0.06
9666 C 0.9994028404257165 194.54097958620133 1.7742993030817473 C 0.0 **** -0.24
9667 H 1.0559820122787187 195.31374633060688 1.0073790282496873 H 0.0 **** 0.06
9668 H 0.45732180124436184 194.92657648914178 2.637851574835281 H 0.0 **** 0.06
9669 H 2.006420590513841 194.2526594549983 2.075006969764928 H 0.0 **** 0.06
9670 H 0.47650691314619564 193.67209777606814 1.3756382997081147 H 0.0 **** 0.06
9671 C 211.51351476578114 231.24840959576483 284.5862438187413 C 0.0 **** -0.24
9672 H 211.64042987719486 231.05962238013433 283.5209916023712 H 0.0 **** 0.06
9673 H 211.51166543073515 232.32378242448436 284.7665386131975 H 0.0 **** 0.06
9674 H 212.33266672676487 230.78702306542488 285.13722828452677 H 0.0 **** 0.06
9675 H 210.5656333835989 230.8227128309327 284.91964224711677 H 0.0 **** 0.06
9676 C 32.68434954018676 157.47187395666163 177.6620819111991 C 0.0 **** -0.24
9677 H 33.65567997171502 156.97806694691974 177.66895043246888 H 0.0 **** 0.06
9678 H 32.51282666743933 157.92345568265392 176.68484437616348 H 0.0 **** 0.06
9679 H 32.66568756527363 158.24640342467137 178.42924042601396 H 0.0 **** 0.06
9680 H 31.902894266715577 156.73958778490237 177.86699645868475 H 0.0 **** 0.06
9681 C 260.036519470456 134.12344266200387 233.21669023841145 C 0.0 **** -0.24
9682 H 260.7940362167923 133.3736779515632 233.4470478130121 H 0.0 **** 0.06
9683 H 259.09116843556706 133.83748724061752 233.67882471226076 H 0.0 **** 0.06
9684 H 259.9071294471819 134.18933866848005 232.1365253033351 H 0.0 **** 0.06
9685 H 260.35341100443804 135.09111734619586 233.6048819546108 H 0.0 **** 0.06
9686 C 82.37277455940068 270.5066722695455 117.99488391079856 C 0.0 **** -0.24
9687 H 83.25858711321678 271.1104879215002 117.79915418518587 H 0.0 **** 0.06
9688 H 82.4216868488468 270.1096890470067 119.00929914287352 H 0.0 **** 0.06
9689 H 82.3303814780835 269.68270987183723 117.28274407716782 H 0.0 **** 0.06
9690 H 81.48083805918267 271.124667815493 117.88938444659635 H 0.0 **** 0.06
9691 C 285.8008714232892 65.72291407157479 183.08625363748877 C 0.0 **** -0.24
9692 H 286.4896166114848 64.88746231182961 183.21630277451118 H 0.0 **** 0.06
9693 H 285.7616488793783 66.30837240451791 184.00515052231287 H 0.0 **** 0.06
9694 H 284.80596657892914 65.34010971381622 182.85645257317776 H 0.0 **** 0.06
9695 H 286.14579398405454 66.35376547810591 182.2671277136908 H 0.0 **** 0.06
9696 C 38.36928281618475 203.82776370849035 80.93233899522971 C 0.0 **** -0.24
9697 H 37.74198544693104 203.37495185578933 81.69982175342457 H 0.0 **** 0.06
9698 H 38.549255320733664 203.104358623084 80.1368684856262 H 0.0 **** 0.06
9699 H 39.320445547003374 204.1286986175573 81.37282054458674 H 0.0 **** 0.06
9700 H 37.86579080791364 204.70262951002837 80.52223416442979 H 0.0 **** 0.06
9701 C 232.00253411567616 195.82602855779805 135.2787792314224 C 0.0 **** -0.24
9702 H 232.14282119988937 196.88004828881668 135.51632140850498 H 0.0 **** 0.06
9703 H 232.94098725614577 195.29208663314722 135.4261327908549 H 0.0 **** 0.06
9704 H 231.68613132874688 195.7265401980818 134.2400421633381 H 0.0 **** 0.06
9705 H 231.23820296253055 195.40544978656118 135.9324624396767 H 0.0 **** 0.06
9706 C 121.59400101430086 131.7599885337673 259.02658811678515 C 0.0 **** -0.24
9707 H 120.69296597447826 131.926468994497 258.4350025611114 H 0.0 **** 0.06
9708 H 122.42516769512804 131.52463380567312 258.36120593002 H 0.0 **** 0.06
9709 H 121.42937402375122 130.92822453614926 259.711834757028 H 0.0 **** 0.06
9710 H 121.82664281927319 132.65939979647152 259.59584773823616 H 0.0 **** 0.06
9711 C 110.43822838549687 81.1891468920038 164.5586567452827 C 0.0 **** -0.24
9712 H 110.9425109835592 81.45131884823073 163.6279772722413 H 0.0 **** 0.06
9713 H 110.61498573561735 80.13728669513708 164.78458221537682 H 0.0 **** 0.06
9714 H 109.36745822281395 81.36241974694545 164.45179643511239 H 0.0 **** 0.06
9715 H 110.82634614482842 81.80630023052666 165.3685812533891 H 0.0 **** 0.06
9716 C 61.388753578562216 76.03186472800297 121.37467609019771 C 0.0 **** -0.24
9717 H 60.87803610639688 75.0696506538624 121.42537218765281 H 0.0 **** 0.06
9718 H 60.83959232496079 76.69996690855547 120.71135660227739 H 0.0 **** 0.06
9719 H 62.39856627134532 75.88707199331157 120.99171951825596 H 0.0 **** 0.06
9720 H 61.43771858421471 76.46851690991119 122.37284724590103 H 0.0 **** 0.06
9721 C 298.33047109374263 165.65047290820632 173.57560671927786 C 0.0 **** -0.24
9722 H 298.427851944512 165.40517004861204 174.63321998856378 H 0.0 **** 0.06
9723 H 298.9897599866125 166.48459554948482 173.3340928937762 H 0.0 **** 0.06
9724 H 297.29832451640345 165.92837861542557 173.36049462290566 H 0.0 **** 0.06
9725 H 298.60620364576465 164.78336613800445 172.97550776210346 H 0.0 **** 0.06
9726 C 127.62012964953897 194.8844354907705 183.19837148085907 C 0.0 **** -0.24
9727 H 127.79616273315142 194.96746021543976 182.12494257886306 H 0.0 **** 0.06
9728 H 126.75402083490448 195.48710477284652 183.4716270521464 H 0.0 **** 0.06
9729 H 128.4965693911862 195.2409974090598 183.73826343450554 H 0.0 **** 0.06
9730 H 127.43344144697372 193.84179775860218 183.45508225833066 H 0.0 **** 0.06
9731 C 157.9839408921663 312.86363728333487 17.657171863045008 C 0.0 **** -0.24
9732 H 157.87898218053738 313.93596306576006 17.81829116523639 H 0.0 **** 0.06
9733 H 159.03165948774307 312.623789529867 17.4748804720209 H 0.0 **** 0.06
9734 H 157.3872308836992 312.5652958502304 16.794367185650785 H 0.0 **** 0.06
9735 H 157.63616616797884 312.3280935820274 18.54093655925277 H 0.0 **** 0.06
9736 C 71.21838267245568 45.148520013991 42.03349159877618 C 0.0 **** -0.24
9737 H 70.28112494677754 45.68033478033246 42.19521777751933 H 0.0 **** 0.06
9738 H 71.84412008544064 45.71541628946085 41.344002908701896 H 0.0 **** 0.06
9739 H 71.01048497613525 44.16502541044565 41.61110757190551 H 0.0 **** 0.06
9740 H 71.7384044864304 45.032546279011484 42.984668636984 H 0.0 **** 0.06
9741 C 298.13530090711237 268.868259555752 255.46916424818988 C 0.0 **** -0.24
9742 H 298.469396809692 269.0501010703958 256.49066116035 H 0.0 **** 0.06
9743 H 298.075087798588 267.79424885402693 255.29196733518492 H 0.0 **** 0.06
9744 H 298.8436830640593 269.3130785619163 254.77101733184335 H 0.0 **** 0.06
9745 H 297.1525956930658 269.31656058173775 255.3239609396245 H 0.0 **** 0.06
9746 C 85.07715643649951 43.77008223316895 303.6753401223605 C 0.0 **** -0.24
9747 H 84.91953856181516 42.71255230252888 303.46230161984346 H 0.0 **** 0.06
9748 H 84.4857817480198 44.05673106074744 304.54515606787766 H 0.0 **** 0.06
9749 H 84.76771073742131 44.363181425786166 302.8146450207381 H 0.0 **** 0.06
9750 H 86.13315048013715 43.945954290211745 303.8786427196637 H 0.0 **** 0.06
9751 C 245.35355140262058 134.21639196730183 252.0973659344503 C 0.0 **** -0.24
9752 H 244.47262339477282 134.35909039521295 252.7236904160094 H 0.0 **** 0.06
9753 H 245.6409643317252 133.16474644898094 252.10876174885038 H 0.0 **** 0.06
9754 H 246.17352237181146 134.82212523157023 252.48150935357998 H 0.0 **** 0.06
9755 H 245.12537208414554 134.51944056352517 251.07555230346833 H 0.0 **** 0.06
9756 C 179.27715108424286 292.8061527539403 56.58532386552531 C 0.0 **** -0.24
9757 H 178.54024389975444 292.95605003480443 55.79607044740109 H 0.0 **** 0.06
9758 H 178.76747731584766 292.55663758360447 57.51580878119282 H 0.0 **** 0.06
9759 H 179.85485970906848 293.72047902501936 56.72035928377247 H 0.0 **** 0.06
9760 H 179.9470843790922 291.99213366456485 56.30750800051112 H 0.0 **** 0.06
9761 C 159.71599949364736 124.50347409216141 251.53596976900735 C 0.0 **** -0.24
9762 H 160.6367634661741 123.97018567673351 251.76918965670467 H 0.0 **** 0.06
9763 H 159.30423095956525 124.1260640393073 250.60001802035111 H 0.0 **** 0.06
9764 H 159.92774005064325 125.56809867028048 251.43743655874118 H 0.0 **** 0.06
9765 H 158.99372217618122 124.34909001078992 252.3390827080592 H 0.0 **** 0.06
9766 C 116.05928374806743 61.460945675724815 268.2425610036923 C 0.0 **** -0.24
9767 H 115.33963666059589 61.39318404361603 269.0581624865189 H 0.0 **** 0.06
9768 H 116.49970214246787 62.45828123072769 268.2286045761634 H 0.0 **** 0.06
9769 H 115.55429869636012 61.272827652333035 267.2947746039969 H 0.0 **** 0.06
9770 H 116.84470204976185 60.71876895022905 268.38853070447954 H 0.0 **** 0.06
9771 C 300.55284427467325 189.22064238719344 253.80503679402418 C 0.0 **** -0.24
9772 H 300.8123406627179 189.8640515472896 254.64596998337265 H 0.0 **** 0.06
9773 H 299.88605263323 189.7573091234209 253.12895685918528 H 0.0 **** 0.06
9774 H 300.05224916049247 188.32569235999614 254.17433116109387 H 0.0 **** 0.06
9775 H 301.4592015581111 188.93655868358144 253.27163988015582 H 0.0 **** 0.06
9776 C 51.97976963607263 141.48564795491743 126.19031033297327 C 0.0 **** -0.24
9777 H 52.96895100215309 141.48230611408988 126.6484417641907 H 0.0 **** 0.06
9778 H 51.44515078611411 142.3877874175282 126.48750458718686 H 0.0 **** 0.06
9779 H 51.424033132807295 140.60769143307542 126.5197320003484 H 0.0 **** 0.06
9780 H 52.08228491357025 141.46499140182127 125.10515445641798 H 0.0 **** 0.06
9781 C 94.05493776275162 57.65612047712699 304.74451514008354 C 0.0 **** -0.24
9782 H 93.59342569871956 57.95765490935369 305.6851181133635 H 0.0 **** 0.06
9783 H 93.3082033545011 57.67732465211259 303.9505047759862 H 0.0 **** 0.06
9784 H 94.45242477831479 56.64609227192125 304.84348203551053 H 0.0 **** 0.06
9785 H 94.86545833792934 58.3435562123488 304.50117410387236 H 0.0 **** 0.06
9786 C 234.97686040051389 121.99161729312499 249.9642398303348 C 0.0 **** -0.24
9787 H 234.87571661307194 122.86084243083644 250.61423055713772 H 0.0 **** 0.06
9788 H 235.4650550801319 121.18486734087364 250.51133289465125 H 0.0 **** 0.06
9789 H 235.57600275209552 122.25613412874569 249.09356903650445 H 0.0 **** 0.06
9790 H 233.98816952328863 121.66541449711252 249.63986128638402 H 0.0 **** 0.06
9791 C 50.49800938751122 180.01626194777242 59.788745264000426 C 0.0 **** -0.24
9792 H 50.285780118765075 181.07414208132775 59.628274959698075 H 0.0 **** 0.06
9793 H 49.686259903261714 179.5663653714032 60.35931269198767 H 0.0 **** 0.06
9794 H 51.43166509161034 179.9142659129953 60.34114111955063 H 0.0 **** 0.06
9795 H 50.58833874190017 179.51387265515592 58.82602258683403 H 0.0 **** 0.06
9796 C 79.95966462090882 45.80752320353605 66.18582143913571 C 0.0 **** -0.24
9797 H 80.10963134353904 46.78785467481663 65.73304937678802 H 0.0 **** 0.06
9798 H 78.91449312842684 45.51357722832921 66.0787528882895 H 0.0 **** 0.06
9799 H 80.21676757918334 45.85245079630948 67.24445921169587 H 0.0 **** 0.06
9800 H 80.59548998656408 45.07614775860878 65.68792646195766 H 0.0 **** 0.06
9801 C 133.36889534570105 67.18174178003869 161.73435894399614 C 0.0 **** -0.24
9802 H 132.4444311521133 66.88857527624509 161.2368313509699 H 0.0 **** 0.06
9803 H 133.34806034990746 66.84272020127946 162.7698045579191 H 0.0 **** 0.06
9804 H 133.46705878707016 68.2671861966727 161.70811567871738 H 0.0 **** 0.06
9805 H 134.21743416977074 66.72804413317223 161.21924374020313 H 0.0 **** 0.06
9806 C 252.45985591621982 292.76594981533594 56.846285201312014 C 0.0 **** -0.24
9807 H 252.55016178556573 293.4333646227691 57.70318698898245 H 0.0 **** 0.06
9808 H 253.45305175336503 292.52999739143934 56.46361584706557 H 0.0 **** 0.06
9809 H 251.87572144971742 293.2524086386597 56.06586923350977 H 0.0 **** 0.06
9810 H 251.96126600366136 291.84629107910496 57.15364209678842 H 0.0 **** 0.06
9811 C 181.2968995892366 285.67452779995074 118.70712527955277 C 0.0 **** -0.24
9812 H 181.86489432702973 286.589289593318 118.53923190001481 H 0.0 **** 0.06
9813 H 181.95536398850356 284.90812411171 119.1178519264146 H 0.0 **** 0.06
9814 H 180.87986844528604 285.3271732519689 117.7622257135809 H 0.0 **** 0.06
9815 H 180.487552784326 285.8727230068198 119.41035409201857 H 0.0 **** 0.06
9816 C 90.44255712047755 228.3062137836856 251.32825506764914 C 0.0 **** -0.24
9817 H 91.52712245108577 228.4019127420853 251.2890237295626 H 0.0 **** 0.06
9818 H 90.00622173570846 229.25044466223065 251.6521405788376 H 0.0 **** 0.06
9819 H 90.1722260488205 227.51931675737154 252.03279004485466 H 0.0 **** 0.06
9820 H 90.06472638237142 228.0516479821999 250.33743947366656 H 0.0 **** 0.06
9821 C 59.685161057093325 211.76023172825157 122.02404017842062 C 0.0 **** -0.24
9822 H 60.64598908933951 212.13157358735975 121.66856716522415 H 0.0 **** 0.06
9823 H 59.69928355341756 211.6985538537717 123.11196101307036 H 0.0 **** 0.06
9824 H 59.50227847216803 210.7700544917784 121.60605291458367 H 0.0 **** 0.06
9825 H 58.89350413334 212.44030535539525 121.7079554883343 H 0.0 **** 0.06
9826 C 223.9152769075178 247.67776463538127 10.962180249922142 C 0.0 **** -0.24
9827 H 223.59854925984166 246.73037766262922 11.399416885160846 H 0.0 **** 0.06
9828 H 224.17102552609867 248.37739937385473 11.758155895546224 H 0.0 **** 0.06
9829 H 223.10370880699287 248.09034737026133 10.362989083342512 H 0.0 **** 0.06
9830 H 224.78638962332676 247.51279185262896 10.329119461789944 H 0.0 **** 0.06
9831 C 204.32550876120786 84.15833162449363 302.4465036945128 C 0.0 **** -0.24
9832 H 204.78444863071053 83.17695282914349 302.32835038603776 H 0.0 **** 0.06
9833 H 203.299797656833 84.0413162733328 302.7942844899918 H 0.0 **** 0.06
9834 H 204.32754548204423 84.67742809721625 301.48742128974845 H 0.0 **** 0.06
9835 H 204.89278699569485 84.7387009256887 303.17411982177384 H 0.0 **** 0.06
9836 C 179.1000633320403 136.11867538018436 189.1483631882134 C 0.0 **** -0.24
9837 H 179.46253681535347 137.08412961617148 188.7970123140152 H 0.0 **** 0.06
9838 H 179.3259578316658 135.35371005692707 188.4040204655056 H 0.0 **** 0.06
9839 H 178.02250455244746 136.16792879950134 189.30183149988238 H 0.0 **** 0.06
9840 H 179.59030817957296 135.86610163014697 190.08838118734542 H 0.0 **** 0.06
9841 C 134.71748111898592 134.25788829282988 266.34367941143535 C 0.0 **** -0.24
9842 H 134.6518442944144 133.36516124712568 266.9650404785483 H 0.0 **** 0.06
9843 H 133.7661123513063 134.4174489363951 265.8360671386964 H 0.0 **** 0.06
9844 H 135.50727346673884 134.12867718135746 265.60468625911153 H 0.0 **** 0.06
9845 H 134.94400315502077 135.12013199619759 266.9707957586188 H 0.0 **** 0.06
9846 C 86.02097460454763 281.73995244669715 240.93475721896746 C 0.0 **** -0.24
9847 H 86.37634099687594 282.7077351476475 241.28762081545932 H 0.0 **** 0.06
9848 H 86.00101830250335 281.73509877701196 239.84481568881318 H 0.0 **** 0.06
9849 H 85.01629064677567 281.5611214378716 241.31843151749862 H 0.0 **** 0.06
9850 H 86.69033160452071 280.9559802416648 241.29060570296684 H 0.0 **** 0.06
9851 C 196.18048924058797 292.88187736377887 88.7766073315442 C 0.0 **** -0.24
9852 H 196.66102159534046 292.07081812198754 88.22867036787159 H 0.0 **** 0.06
9853 H 195.1053127767325 292.7061095117183 88.81405842752426 H 0.0 **** 0.06
9854 H 196.37602680822084 293.827575594999 88.27063967722424 H 0.0 **** 0.06
9855 H 196.5784579814511 292.9216816933971 89.7899063202135 H 0.0 **** 0.06
9856 C 182.4422772469485 38.243937639065734 286.9207283435461 C 0.0 **** -0.24
9857 H 183.16179252240983 38.25875346354735 287.7402151438479 H 0.0 **** 0.06
9858 H 181.5302919368366 37.745030264814204 287.24714153538457 H 0.0 **** 0.06
9859 H 182.8680560996167 37.706701644586076 286.07275180570815 H 0.0 **** 0.06
9860 H 182.2107938255486 39.26689005142043 286.62297149610856 H 0.0 **** 0.06
9861 C 249.31238433132393 137.6022520264932 41.26518885355989 C 0.0 **** -0.24
9862 H 249.87108903749535 137.66315297956135 40.33101142011262 H 0.0 **** 0.06
9863 H 249.9972277478838 137.71430273369327 42.10561700799934 H 0.0 **** 0.06
9864 H 248.81531455460873 136.63392418991407 41.32739166855052 H 0.0 **** 0.06
9865 H 248.56617502692032 138.39644432512057 41.29399194542461 H 0.0 **** 0.06
9866 C 168.67262994570558 124.54634516666243 5.728077636601995 C 0.0 **** -0.24
9867 H 169.51105399439 124.1415726249283 6.294472950602426 H 0.0 **** 0.06
9868 H 167.78028546473405 123.94997440274204 5.924766732673206 H 0.0 **** 0.06
9869 H 168.9032515295441 124.51446082885244 4.663825590183507 H 0.0 **** 0.06
9870 H 168.4938392226402 125.57813629803812 6.031716058810986 H 0.0 **** 0.06
9871 C 7.779146193301386 94.01226126085905 246.60355271177878 C 0.0 **** -0.24
9872 H 8.129905131203273 94.44299084969444 247.5421365093245 H 0.0 **** 0.06
9873 H 7.81753055686292 94.7683964772391 245.81987068325367 H 0.0 **** 0.06
9874 H 6.752612928830359 93.66625943454463 246.72596817131387 H 0.0 **** 0.06
9875 H 8.416098914272922 93.17168018435999 246.33032564544337 H 0.0 **** 0.06
9876 C 134.90278725669185 9.783153788490978 48.06291660148082 C 0.0 **** -0.24
9877 H 134.5571297014484 9.042870029532835 48.78490078664683 H 0.0 **** 0.06
9878 H 134.048875467237 10.337455496207767 47.67380656391771 H 0.0 **** 0.06
9879 H 135.414063499954 9.280049795885432 47.24230443679761 H 0.0 **** 0.06
9880 H 135.59218799211902 10.472217915116872 48.55153363823288 H 0.0 **** 0.06
9881 C 94.08554312713346 35.399948723937285 109.78729549764344 C 0.0 **** -0.24
9882 H 94.51875775318985 36.30453946719646 110.21553728745516 H 0.0 **** 0.06
9883 H 93.66839324347538 34.784868610286594 110.5853223036898 H 0.0 **** 0.06
9884 H 94.86003943068289 34.84041861517039 109.26287879087067 H 0.0 **** 0.06
9885 H 93.29610442171196 35.67235785136137 109.08686837992093 H 0.0 **** 0.06
9886 C 201.79979355084004 166.7270886312753 140.95006293170246 C 0.0 **** -0.24
9887 H 201.2805732145444 167.62700585986403 140.62290613952587 H 0.0 **** 0.06
9888 H 201.35668899754108 166.37049590777843 141.88058232431464 H 0.0 **** 0.06
9889 H 202.85350031996882 166.9546682939412 141.11328331831638 H 0.0 **** 0.06
9890 H 201.70885693112314 165.95600720133638 140.18481048244664 H 0.0 **** 0.06
9891 C 200.93204417035582 156.48990424323517 285.65425890617485 C 0.0 **** -0.24
9892 H 201.82820068600824 156.02128263397458 285.2457706648305 H 0.0 **** 0.06
9893 H 200.05371795044977 156.11055857759146 285.1319809462071 H 0.0 **** 0.06
9894 H 200.99533458998906 157.56946003542873 285.52354946814205 H 0.0 **** 0.06
9895 H 200.85250172104725 156.25598053976546 286.7159712261822 H 0.0 **** 0.06
9896 C 79.60640099843269 131.43146716036802 58.99625150804218 C 0.0 **** -0.24
9897 H 78.7655233654653 131.32720090609513 58.30958804562454 H 0.0 **** 0.06
9898 H 80.17604155865814 132.32500364146793 58.73827370841502 H 0.0 **** 0.06
9899 H 80.24911531660433 130.55568965736765 58.91876337181759 H 0.0 **** 0.06
9900 H 79.23257445721944 131.51994549161725 60.01623712128281 H 0.0 **** 0.06
9901 C 88.61926060380728 192.63144675635772 275.98847445495386 C 0.0 **** -0.24
9902 H 87.660813142363 192.64448516761445 275.4694332101162 H 0.0 **** 0.06
9903 H 88.44953086344958 192.5140410275676 277.0590406895873 H 0.0 **** 0.06
9904 H 89.14544892508317 193.56766766626316 275.80457338290256 H 0.0 **** 0.06
9905 H 89.21954289850075 191.798612797398 275.62191188949043 H 0.0 **** 0.06
9906 C 177.18543938582349 224.7337904171942 150.22096456696653 C 0.0 **** -0.24
9907 H 177.68200369714975 225.38198556930047 150.94371575786636 H 0.0 **** 0.06
9908 H 176.10473949359186 224.84827314816346 150.3128275262215 H 0.0 **** 0.06
9909 H 177.45917015728895 223.69667861362632 150.41649953716512 H 0.0 **** 0.06
9910 H 177.49590087967107 225.00832814922933 149.21381312080638 H 0.0 **** 0.06
9911 C 127.21365061477331 94.54866343176141 18.99220666517587 C 0.0 **** -0.24
9912 H 126.47703531584204 94.50616057253433 18.19046745933018 H 0.0 **** 0.06
9913 H 126.77770030888348 94.14810170214022 19.90785287695016 H 0.0 **** 0.06
9914 H 127.51370070426344 95.5840370670364 19.154446395920402 H 0.0 **** 0.06
9915 H 128.08543913774974 93.95635490140913 18.715373279864224 H 0.0 **** 0.06
9916 C 81.27312560059008 81.86857589502233 103.7744063682203 C 0.0 **** -0.24
9917 H 81.75783104980854 81.93455264076283 104.74850033015662 H 0.0 **** 0.06
9918 H 80.44394969809159 81.16197711522855 103.82922283273626 H 0.0 **** 0.06
9919 H 81.99427085055004 81.52576123378341 103.03280540818321 H 0.0 **** 0.06
9920 H 80.89631298123743 82.84987635078238 103.48828749518225 H 0.0 **** 0.06
9921 C 157.93811752456753 77.3214594610572 101.64042193701289 C 0.0 **** -0.24
9922 H 157.37706864783337 76.84920152936252 100.83381425341736 H 0.0 **** 0.06
9923 H 158.98848424035748 77.03562493115348 101.5675951314989 H 0.0 **** 0.06
9924 H 157.53825444959182 76.99441416150555 102.59998289965137 H 0.0 **** 0.06
9925 H 157.8493189166486 78.40451676604715 101.55918137718729 H 0.0 **** 0.06
9926 C 152.72401199276862 176.61046345455736 290.1835834935355 C 0.0 **** -0.24
9927 H 152.24337408304933 175.73411392364494 289.74836739691676 H 0.0 **** 0.06
9928 H 153.50656531992598 176.2911771240773 290.8718195568264 H 0.0 **** 0.06
9929 H 151.98217675908103 177.19957088105588 290.72407797301184 H 0.0 **** 0.06
9930 H 153.16149664599573 177.2171603481895 289.3902730810239 H 0.0 **** 0.06
9931 C 226.9215958355732 311.86175180788024 19.541858361136377 C 0.0 **** -0.24
9932 H 226.29516254135234 310.97746477135826 19.656615114272753 H 0.0 **** 0.06
9933 H 226.30323617902076 312.7090300287435 19.243935039432344 H 0.0 **** 0.06
9934 H 227.67624960718499 311.675388749362 18.77717159565543 H 0.0 **** 0.06
9935 H 227.41173501473475 312.0851236820573 20.489711695185036 H 0.0 **** 0.06
9936 C 135.37752616555213 14.648788937415532 66.40732628546206 C 0.0 **** -0.24
9937 H 136.29374991338062 15.008309691198846 66.8770647522575 H 0.0 **** 0.06
9938 H 135.572255478301 13.695100335557285 65.9156557654575 H 0.0 **** 0.06
9939 H 135.03851613946958 15.375475628982244 65.66947806164524 H 0.0 **** 0.06
9940 H 134.60775913061232 14.51593002881738 67.16749309085066 H 0.0 **** 0.06
9941 C 38.59488113908989 298.6090658713489 214.2038976491486 C 0.0 **** -0.24
9942 H 38.919245706601004 299.62977182571825 214.40530601496246 H 0.0 **** 0.06
9943 H 38.20189071362509 298.16557242767414 215.11902739025027 H 0.0 **** 0.06
9944 H 39.441162231404974 298.02159549055267 213.8498563974337 H 0.0 **** 0.06
9945 H 37.81519419507299 298.6197689516053 213.44269461418708 H 0.0 **** 0.06
9946 C 218.23348557305002 236.12397108466718 120.66546452944732 C 0.0 **** -0.24
9947 H 218.25079143121172 235.03577991421116 120.60537431716762 H 0.0 **** 0.06
9948 H 217.2026597633352 236.4672128140344 120.7509666551482 H 0.0 **** 0.06
9949 H 218.684182732863 236.544963288472 119.76659079778815 H 0.0 **** 0.06
9950 H 218.7984692525771 236.4472857432589 121.54063447315482 H 0.0 **** 0.06
9951 C 125.11144962676386 32.691684986366255 162.36104114037715 C 0.0 **** -0.24
9952 H 124.41450688306185 33.47334513285719 162.66372344642156 H 0.0 **** 0.06
9953 H 124.67266037313692 32.10875925723025 161.5516117533977 H 0.0 **** 0.06
9954 H 125.31469552821713 32.03955207692513 163.2102526100972 H 0.0 **** 0.06
9955 H 126.0417027909134 33.146308110922234 162.02112907401664 H 0.0 **** 0.06
9956 C 124.65759776549012 253.9761435342423 40.41259909262067 C 0.0 **** -0.24
9957 H 124.15192532935671 253.07909600297123 40.7720590635588 H 0.0 **** 0.06
9958 H 124.61911652319597 254.74718333567938 41.18296210741721 H 0.0 **** 0.06
9959 H 124.16175012758043 254.33642830177212 39.511601116292695 H 0.0 **** 0.06
9960 H 125.69688667588898 253.7396027670187 40.18629758483655 H 0.0 **** 0.06
9961 C 85.16354365904695 157.9447219049507 261.5632250734317 C 0.0 **** -0.24
9962 H 84.2596368672975 157.35648878022693 261.41003027689175 H 0.0 **** 0.06
9963 H 85.16059978144824 158.7984674376093 260.8850582413512 H 0.0 **** 0.06
9964 H 86.03838137231821 157.32497612690514 261.36308136957797 H 0.0 **** 0.06
9965 H 85.19694803886304 158.29882969445657 262.5937065978187 H 0.0 **** 0.06
9966 C 268.9224314699988 94.39544789647294 308.68797061142783 C 0.0 **** -0.24
9967 H 268.7685885125969 93.45652511422765 309.2196647929448 H 0.0 **** 0.06
9968 H 269.5146228091937 95.06943715142836 309.307732062491 H 0.0 **** 0.06
9969 H 267.9574819601499 94.85266476317935 308.47246301643384 H 0.0 **** 0.06
9970 H 269.450253720368 94.20179496917189 307.75439599539055 H 0.0 **** 0.06
9971 C 53.09304106920399 37.14813867425903 171.87986106427212 C 0.0 **** -0.24
9972 H 53.537091976726686 36.27117368720019 172.3491057184276 H 0.0 **** 0.06
9973 H 53.88289702401107 37.784245811800304 171.47915464490177 H 0.0 **** 0.06
9974 H 52.51720215723117 37.70448413269855 172.61936334803875 H 0.0 **** 0.06
9975 H 52.4348497893028 36.83276455030125 171.06937679082165 H 0.0 **** 0.06
9976 C 171.60557571005768 276.63919254950537 204.53586108834202 C 0.0 **** -0.24
9977 H 172.2070232470437 276.36042233824935 203.6695987796641 H 0.0 **** 0.06
9978 H 171.183764219672 277.6329168522133 204.37929022596649 H 0.0 **** 0.06
9979 H 172.23335427811713 276.64723058938284 205.42701136204357 H 0.0 **** 0.06
9980 H 170.79958408519207 275.9175863546901 204.66529580408405 H 0.0 **** 0.06
9981 C 27.82718892321617 219.11138244500546 66.55135854969356 C 0.0 **** -0.24
9982 H 28.037258089727885 218.70025137175872 65.56371866692743 H 0.0 **** 0.06
9983 H 28.729809315698674 219.06971755781134 67.16191634328479 H 0.0 **** 0.06
9984 H 27.03868605558401 218.52683046233562 67.02680524856729 H 0.0 **** 0.06
9985 H 27.501775981937186 220.1466221886234 66.452766271249 H 0.0 **** 0.06
9986 C 150.8902489315513 119.98646329200469 257.45855856614656 C 0.0 **** -0.24
9987 H 151.2593194345896 119.15588806881186 258.0605237759579 H 0.0 **** 0.06
9988 H 151.72816088183907 120.47609656180609 256.96283871357207 H 0.0 **** 0.06
9989 H 150.37975474909467 120.70271570780386 258.1028733335213 H 0.0 **** 0.06
9990 H 150.1929980396776 119.6111991628031 256.7103257338363 H 0.0 **** 0.06
9991 C 290.8584427591906 202.86122043626904 101.30017645263766 C 0.0 **** -0.24
9992 H 291.67368209665807 203.46618968773691 100.9025090284668 H 0.0 **** 0.06
9993 H 290.6858527104073 202.008023930165 100.64319262282615 H 0.0 **** 0.06
9994 H 289.9531613655405 203.46586578712618 101.35803792195668 H 0.0 **** 0.06
9995 H 291.12292477047595 202.5063505706517 102.29548946222297 H 0.0 **** 0.06
9996 C 294.4704676700787 79.50457538624283 212.66290549810054 C 0.0 **** -0.24
9997 H 294.8476289433139 79.78459104370242 213.64658581015232 H 0.0 **** 0.06
9998 H 293.68975694961404 78.75195808427037 212.77283419008631 H 0.0 **** 0.06
9999 H 295.28557655469194 79.09877453265435 212.06358711518624 H 0.0 **** 0.06
10000 H 294.0597033541059 80.38452722494233 212.16721225508687 H 0.0 **** 0.06
10001 C 16.136739792433218 92.63992076385193 314.09251700269147 C 0.0 **** -0.24
10002 H 15.216764392907933 92.53207348752991 314.6678652305432 H 0.0 **** 0.06
10003 H 16.032105336468007 92.12070976284568 313.1407744381949 H 0.0 **** 0.06
10004 H 16.96800306650556 92.21009412816832 314.652611448717 H 0.0 **** 0.06
10005 H 16.328929473747934 93.69778876266741 313.91140439499776 H 0.0 **** 0.06
10006 C 276.5763839224102 286.7751020335098 299.62614273477436 C 0.0 **** -0.24
10007 H 276.8191235790762 287.69076669502283 300.1658945660391 H 0.0 **** 0.06
10008 H 277.3610079960592 286.56341303960767 298.90017015949 H 0.0 **** 0.06
10009 H 275.6253308123019 286.89969373903483 299.1091038240137 H 0.0 **** 0.06
10010 H 276.5006519267716 285.94766558683574 300.3319294896654 H 0.0 **** 0.06
10011 C 8.745886248423844 101.19075836712105 210.26371887422533 C 0.0 **** -0.24
10012 H 8.833653827038589 100.54741367802242 209.3878028871896 H 0.0 **** 0.06
10013 H 8.23585360575639 100.65081764923113 211.06129587561787 H 0.0 **** 0.06
10014 H 8.17425502989471 102.0817249706964 210.00341018757229 H 0.0 **** 0.06
10015 H 9.740770821051868 101.48215098240246 210.60058736669816 H 0.0 **** 0.06
10016 C 122.65247862733943 314.2492736725983 107.2921163331552 C 0.0 **** -0.24
10017 H 122.94725638047476 315.0052676363016 108.02072703744727 H 0.0 **** 0.06
10018 H 121.78540459722777 313.7045118871542 107.6650232535724 H 0.0 **** 0.06
10019 H 123.47851564918841 313.5566454267826 107.13391615283618 H 0.0 **** 0.06
10020 H 122.39932055597279 314.7347071740408 106.34939863517161 H 0.0 **** 0.06
10021 C 299.61703821601935 54.28964624432143 256.4141946281175 C 0.0 **** -0.24
10022 H 299.1038676457557 53.49506011759519 255.87261065252466 H 0.0 **** 0.06
10023 H 299.46860557902454 54.15151615009847 257.4858812362913 H 0.0 **** 0.06
10024 H 299.2128867249962 55.256055904861796 256.1125105364819 H 0.0 **** 0.06
10025 H 300.68273938876325 54.25420518960868 256.1879993758234 H 0.0 **** 0.06
10026 C 210.4501280370498 68.18310514136482 120.78950531816866 C 0.0 **** -0.24
10027 H 209.54004231049345 67.60744212211986 120.96113985151266 H 0.0 **** 0.06
10028 H 210.51641241872758 68.98406132072438 121.52522872096984 H 0.0 **** 0.06
10029 H 210.4257203720756 68.61054157602118 119.78786830643264 H 0.0 **** 0.06
10030 H 211.31608909222064 67.52900410382244 120.8852217124433 H 0.0 **** 0.06
10031 C 21.738427409761186 38.52056045207439 47.24115428187682 C 0.0 **** -0.24
10032 H 20.778701781045015 38.206749948636 47.651520014819454 H 0.0 **** 0.06
10033 H 21.598473830357307 39.41733845575169 46.63697503616257 H 0.0 **** 0.06
10034 H 22.146832765364934 37.7235901393891 46.62053142395743 H 0.0 **** 0.06
10035 H 22.429510535868076 38.736344773815404 48.05692851301836 H 0.0 **** 0.06
10036 C 225.70968731856235 139.8806359382122 300.2768470367881 C 0.0 **** -0.24
10037 H 224.87102855857523 139.40740965045825 299.7669463492421 H 0.0 **** 0.06
10038 H 226.5330263557321 140.01246587449376 299.57458850234104 H 0.0 **** 0.06
10039 H 226.0344520743265 139.25050171831487 301.10432396364024 H 0.0 **** 0.06
10040 H 225.39874569013813 140.85277270257603 300.6599824788185 H 0.0 **** 0.06
10041 C 270.12188138217954 67.72490261412216 311.4621806075711 C 0.0 **** -0.24
10042 H 270.2723094141112 68.17321615597214 312.4448614970901 H 0.0 **** 0.06
10043 H 270.7839541637657 68.20271368422112 310.7399987997757 H 0.0 **** 0.06
10044 H 269.0849488357496 67.86594175295363 311.1547636069427 H 0.0 **** 0.06
10045 H 270.3442271629118 66.65904893031691 311.51131946716777 H 0.0 **** 0.06
10046 C 125.25117208248267 129.5650252248274 283.7468829626294 C 0.0 **** -0.24
10047 H 125.08826082183165 130.60615268520485 284.0235413756529 H 0.0 **** 0.06
10048 H 126.20702602477755 129.4722421257393 283.23064572021696 H 0.0 **** 0.06
10049 H 124.44886343245085 129.23407396628028 283.08839420890183 H 0.0 **** 0.06
10050 H 125.2625264474334 128.94768415211277 284.6451593279221 H 0.0 **** 0.06
10051 C 294.96071644944413 184.3334570246767 61.18279110289541 C 0.0 **** -0.24
10052 H 295.7629046104623 185.04754980190017 61.37176733018771 H 0.0 **** 0.06
10053 H 293.9990125939335 184.8060291692492 61.38181776215589 H 0.0 **** 0.06
10054 H 295.0831546070595 183.46953966261015 61.83597870117973 H 0.0 **** 0.06
10055 H 294.9996761319559 184.0096446734164 60.14216962536969 H 0.0 **** 0.06
10056 C 218.76544132697865 20.081681394305775 87.65842452569154 C 0.0 **** -0.24
10057 H 217.89667109590187 19.95153032483711 88.3041042736377 H 0.0 **** 0.06
10058 H 219.66843299126793 20.125103100216464 88.26836137900037 H 0.0 **** 0.06
10059 H 218.66263785083424 21.009165899276837 87.09492182888945 H 0.0 **** 0.06
10060 H 218.83397551782767 19.241846251009946 86.96669961756947 H 0.0 **** 0.06
10061 C 83.86745854372433 261.75866980356204 105.33757720835564 C 0.0 **** -0.24
10062 H 84.75028861590289 261.97471306928776 104.7365400070428 H 0.0 **** 0.06
10063 H 83.9537848424512 260.75792863593006 105.7638766888166 H 0.0 **** 0.06
10064 H 82.97921514981437 261.81031849629284 104.70964295547344 H 0.0 **** 0.06
10065 H 83.78774079685081 262.4901342628537 106.14127875252228 H 0.0 **** 0.06
10066 C 183.28549882028955 195.75292652741507 251.5998959455177 C 0.0 **** -0.24
10067 H 182.62825104663904 194.93765152197022 251.90455868629124 H 0.0 **** 0.06
10068 H 184.06819989681662 195.88595684783917 252.34628210929355 H 0.0 **** 0.06
10069 H 182.70574199724632 196.67192741820372 251.5128974428449 H 0.0 **** 0.06
10070 H 183.73677545452244 195.5152922032275 250.63687846141005 H 0.0 **** 0.06
10071 C 201.5559969229907 246.56012910770997 235.84257334194908 C 0.0 **** -0.24
10072 H 201.5473658152291 247.26588768029262 235.0116216624795 H 0.0 **** 0.06
10073 H 200.98198921949097 246.97065013643632 236.67360823509097 H 0.0 **** 0.06
10074 H 202.58376380965808 246.38636421388827 236.16119590535627 H 0.0 **** 0.06
10075 H 201.10999851185477 245.61843765058208 235.52311604403212 H 0.0 **** 0.06
10076 C 37.976753855076794 2.9335197834471245 204.10486485843404 C 0.0 **** -0.24
10077 H 38.36618928246946 1.9355127439561528 204.30089633032293 H 0.0 **** 0.06
10078 H 38.53549710288931 3.6631822345240437 204.69212804189942 H 0.0 **** 0.06
10079 H 36.923198844181286 2.9735702489126083 204.38383287638806 H 0.0 **** 0.06
10080 H 38.08050335381071 3.162830225728385 203.04511625385226 H 0.0 **** 0.06
10081 C 208.92577291697307 274.9424341907161 145.7142981712476 C 0.0 **** -0.24
10082 H 208.8741489904897 275.9348339414463 146.1634162626007 H 0.0 **** 0.06
10083 H 209.14954899750649 275.03523729040876 144.6521290722072 H 0.0 **** 0.06
10084 H 207.96850471848052 274.43700106723264 145.84238917158248 H 0.0 **** 0.06
10085 H 209.70987819044575 274.36380655276184 146.20308885104052 H 0.0 **** 0.06
10086 C 211.79502067119935 164.4053858962577 293.16680217187024 C 0.0 **** -0.24
10087 H 211.3313127046589 165.0777584321113 292.44506299158775 H 0.0 **** 0.06
10088 H 212.7112017714103 164.85741252277342 293.54883159155224 H 0.0 **** 0.06
10089 H 212.03200376539326 163.45879670000278 292.68013363913417 H 0.0 **** 0.06
10090 H 211.10577297458497 164.2267644768378 293.992041137661 H 0.0 **** 0.06
10091 C 224.3706883845059 202.6909042154258 170.33437318362485 C 0.0 **** -0.24
10092 H 223.53862742483102 202.35765144388836 170.95438003696444 H 0.0 **** 0.06
10093 H 224.96949978359316 201.83025474864883 170.0368941891095 H 0.0 **** 0.06
10094 H 224.9899067895065 203.38635846171508 170.90249228735695 H 0.0 **** 0.06
10095 H 223.985454068389 203.19042952063677 169.446236181328 H 0.0 **** 0.06
10096 C 232.53715195037873 306.8981831691577 211.4116148373841 C 0.0 **** -0.24
10097 H 232.17748838158116 307.66378403958925 212.1007329583909 H 0.0 **** 0.06
10098 H 231.73828597809745 306.1839825612815 211.21362242052047 H 0.0 **** 0.06
10099 H 233.38673938172923 306.38069217349766 211.85605449743957 H 0.0 **** 0.06
10100 H 232.8450866736788 307.367117565014 210.47742744425597 H 0.0 **** 0.06
10101 C 25.006806607862558 254.85374448874202 42.494903454510194 C 0.0 **** -0.24
10102 H 25.731762921044776 254.03918073504613 42.501115510522936 H 0.0 **** 0.06
10103 H 24.680321330978586 255.04209080416692 41.4718700328101 H 0.0 **** 0.06
10104 H 25.4694724387885 255.7538771854753 42.90123806167276 H 0.0 **** 0.06
10105 H 24.147406046578965 254.57875800920738 43.10630549966186 H 0.0 **** 0.06
10106 C 17.76402645264652 150.8130634396199 98.8146989105721 C 0.0 **** -0.24
10107 H 18.53749109223567 150.48746329582815 99.50986244886056 H 0.0 **** 0.06
10108 H 17.87147203288019 150.2728191854966 97.87295109241694 H 0.0 **** 0.06
10109 H 17.86562628280184 151.8831835845209 98.63320868672153 H 0.0 **** 0.06
10110 H 16.782199765825794 150.60895431843443 99.24119061166533 H 0.0 **** 0.06
10111 C 113.35906563836446 9.369738401413883 126.46493688869583 C 0.0 **** -0.24
10112 H 114.05833166836143 8.581327004680176 126.18568997157061 H 0.0 **** 0.06
10113 H 112.49448894301534 8.927881018967824 126.96072771489756 H 0.0 **** 0.06
10114 H 113.03300554417365 9.899300655918495 125.56914227581802 H 0.0 **** 0.06
10115 H 113.85005059235505 10.068234489809285 127.14219632002573 H 0.0 **** 0.06
10116 C 129.91904845530985 38.020703379384145 312.5547854379548 C 0.0 **** -0.24
10117 H 128.98507235537778 38.13422171643094 312.0067329127352 H 0.0 **** 0.06
10118 H 130.7519162749214 38.32771405865708 311.92231410493076 H 0.0 **** 0.06
10119 H 130.04735693956846 36.977546192338195 312.843146955024 H 0.0 **** 0.06
10120 H 129.89310232813142 38.64421479893997 313.44952599624827 H 0.0 **** 0.06
10121 C 134.1081201519593 91.52174823587117 18.188335159048123 C 0.0 **** -0.24
10122 H 134.86550579513562 90.74104147423185 18.11559389671831 H 0.0 **** 0.06
10123 H 133.1250711501569 91.06335324687208 18.306021412404178 H 0.0 **** 0.06
10124 H 134.12199146027555 92.12608021296361 17.28088113722532 H 0.0 **** 0.06
10125 H 134.3193907070894 92.15429673899285 19.049953107638785 H 0.0 **** 0.06
10126 C 68.26155791129077 220.91303281349911 292.19383587793675 C 0.0 **** -0.24
10127 H 69.1631728820206 220.7688710492725 292.78738298703735 H 0.0 **** 0.06
10128 H 68.51222032220988 220.856796070285 291.13424862943657 H 0.0 **** 0.06
10129 H 67.83329333079422 221.89054410790536 292.4141026830447 H 0.0 **** 0.06
10130 H 67.53767666066014 220.13582869611724 292.43716495769326 H 0.0 **** 0.06
10131 C 305.9939681051992 134.35547333711105 31.952490851509992 C 0.0 **** -0.24
10132 H 305.56668797387715 135.29090720230798 32.315656832060654 H 0.0 **** 0.06
10133 H 305.9329967181152 133.60131294832127 32.736822379530935 H 0.0 **** 0.06
10134 H 307.03662778224265 134.5150174236844 31.679615738080514 H 0.0 **** 0.06
10135 H 305.4376316668566 134.0181878736134 31.078766279942812 H 0.0 **** 0.06
10136 C 84.8950592540566 126.67213843837706 307.0326616329458 C 0.0 **** -0.24
10137 H 85.90060371352934 126.74356870880638 306.61597300302344 H 0.0 **** 0.06
10138 H 84.6433123795509 127.60702198760188 307.5330810661815 H 0.0 **** 0.06
10139 H 84.85768748969096 125.85313023584675 307.75080177555697 H 0.0 **** 0.06
10140 H 84.18272720634539 126.484832076945 306.2302996681633 H 0.0 **** 0.06
10141 C 98.80665432995204 172.60681669543357 301.36556613320744 C 0.0 **** -0.24
10142 H 99.7523475098331 172.075449660853 301.25888982906196 H 0.0 **** 0.06
10143 H 98.37606752826747 172.38944763209764 302.342592254942 H 0.0 **** 0.06
10144 H 98.11898326763941 172.2825005258776 300.58413546777194 H 0.0 **** 0.06
10145 H 98.97976288346987 173.67902689222325 301.2746481950338 H 0.0 **** 0.06
10146 C 97.76077494959586 87.48151575764973 13.017569371685852 C 0.0 **** -0.24
10147 H 97.66907895928423 87.67500774103004 11.948136319027896 H 0.0 **** 0.06
10148 H 96.8705319082695 86.9613002160209 13.369594176135081 H 0.0 **** 0.06
10149 H 97.86535285075644 88.42736275583135 13.549316745476304 H 0.0 **** 0.06
10150 H 98.63992305538292 86.86289623154516 13.200139477812101 H 0.0 **** 0.06
10151 C 264.76836098265613 139.06851150964795 22.301703517770704 C 0.0 **** -0.24
10152 H 265.7960032087091 138.98807663236607 21.945849558386698 H 0.0 **** 0.06
10153 H 264.17242358628397 139.6130847008676 21.569480868694313 H 0.0 **** 0.06
10154 H 264.75435979763284 139.60231200009738 23.25220409922872 H 0.0 **** 0.06
10155 H 264.3529761928031 138.06979335155182 22.439154856321238 H 0.0 **** 0.06
10156 C 280.8597038701173 6.973991326039538 111.19385912567071 C 0.0 **** -0.24
10157 H 279.7880711376655 7.0698792228421325 111.02111612319516 H 0.0 **** 0.06
10158 H 281.0330000409946 6.341452418582833 112.06411788884657 H 0.0 **** 0.06
10159 H 281.2885424253626 7.960513691848973 111.37057773359444 H 0.0 **** 0.06
10160 H 281.32979351689386 6.525979889178927 110.31814465822032 H 0.0 **** 0.06
10161 C 258.63063098306264 130.842234532147 187.39219057794293 C 0.0 **** -0.24
10162 H 257.9889400638797 131.72184526145423 187.35401894148896 H 0.0 **** 0.06
10163 H 258.2047063976865 130.1113790299846 188.08103659944106 H 0.0 **** 0.06
10164 H 259.6235627781395 131.13039669950595 187.73723748076344 H 0.0 **** 0.06
10165 H 258.7051260334953 130.40268377530882 186.39748410365843 H 0.0 **** 0.06
10166 C 23.552969998287523 280.9870981160898 18.503552513428204 C 0.0 **** -0.24
10167 H 24.580281351614474 281.33895397009735 18.60432054791295 H 0.0 **** 0.06
10168 H 23.024303155217808 281.1366794765096 19.444412296282337 H 0.0 **** 0.06
10169 H 23.55569433275363 279.92676077358914 18.252157116832734 H 0.0 **** 0.06
10170 H 23.053676995042053 281.5467441206922 17.71295325092494 H 0.0 **** 0.06
10171 C 285.15885421595993 122.16786444055288 310.9326459708272 C 0.0 **** -0.24
10172 H 286.1091237711306 122.70093856591191 310.9690066794365 H 0.0 **** 0.06
10173 H 285.29047852675546 121.22716651065045 310.39839809443777 H 0.0 **** 0.06
10174 H 284.41935233494655 122.77964216367243 310.4150946792339 H 0.0 **** 0.06
10175 H 284.816453389398 121.9657703543036 311.9472143525459 H 0.0 **** 0.06
10176 C 34.00929607856264 105.54141171188255 13.370222834710859 C 0.0 **** -0.24
10177 H 34.175827119377885 106.20538279509992 12.52130342262015 H 0.0 **** 0.06
10178 H 33.33773609602184 104.73531563507566 13.074749223902288 H 0.0 **** 0.06
10179 H 33.563718496667974 106.10512315593968 14.189430606391085 H 0.0 **** 0.06
10180 H 34.96256841319169 105.12135149633005 13.69415744282287 H 0.0 **** 0.06
10181 C 261.48605696880753 119.83189508374426 144.4826799341889 C 0.0 **** -0.24
10182 H 261.1882632950561 119.51215422419071 145.48147874396076 H 0.0 **** 0.06
10183 H 261.6422038330076 120.91045955017756 144.47776091903933 H 0.0 **** 0.06
10184 H 260.7007176265455 119.57436679847854 143.77088174855072 H 0.0 **** 0.06
10185 H 262.41074551649086 119.32804156297524 144.2010186659973 H 0.0 **** 0.06
10186 C 233.03491484442418 187.22553094455253 203.03527503139145 C 0.0 **** -0.24
10187 H 233.46727153080735 186.35083975273517 202.54999123606768 H 0.0 **** 0.06
10188 H 233.16002092111003 187.1410633721041 204.11451830621195 H 0.0 **** 0.06
10189 H 231.97232063966106 187.28619744955137 202.79566599450226 H 0.0 **** 0.06
10190 H 233.53910705108524 188.12411583587726 202.67987137187316 H 0.0 **** 0.06
10191 C 255.30969966680422 19.945513001216113 252.06570926734895 C 0.0 **** -0.24
10192 H 256.0730941884732 19.803247601947305 252.8311867093994 H 0.0 **** 0.06
10193 H 255.26699238072575 20.9986679060205 251.78745185878284 H 0.0 **** 0.06
10194 H 254.34146994256523 19.633232946924068 252.4557832531811 H 0.0 **** 0.06
10195 H 255.55817078348747 19.34784921779959 251.18890857484087 H 0.0 **** 0.06
10196 C 56.143973145617935 281.0890650643002 51.68927178889302 C 0.0 **** -0.24
10197 H 57.06455265917555 281.65268904933623 51.533744562443246 H 0.0 **** 0.06
10198 H 56.01628969287552 280.37250701491416 50.87685265121456 H 0.0 **** 0.06
10199 H 55.297255083606416 281.7744636000525 51.70652622689332 H 0.0 **** 0.06
10200 H 56.20068076590067 280.55582014478296 52.638526999057206 H 0.0 **** 0.06
10201 C 42.212095807629595 130.50989772069198 190.86778905826702 C 0.0 **** -0.24
10202 H 42.10919706107654 131.32100233953068 190.14792275899964 H 0.0 **** 0.06
10203 H 42.97222389912807 129.8101417779298 190.5202818561416 H 0.0 **** 0.06
10204 H 41.25844942837537 129.99033103238025 190.96908267429478 H 0.0 **** 0.06
10205 H 42.50753962715805 130.91788147844173 191.8348679365415 H 0.0 **** 0.06
10206 C 127.18841730980895 280.8812141506943 251.7352676438673 C 0.0 **** -0.24
10207 H 126.18018369536338 280.5874584382651 252.02772432649067 H 0.0 **** 0.06
10208 H 127.88844508062658 280.0872572585785 251.99717779553046 H 0.0 **** 0.06
10209 H 127.46556579634478 281.7970756000691 252.2560496195152 H 0.0 **** 0.06
10210 H 127.21818471799014 281.05194265067684 250.65867810507163 H 0.0 **** 0.06
10211 C 17.834124091166615 10.487511684754736 217.55574886218216 C 0.0 **** -0.24
10212 H 17.645238144690964 9.676454655121745 218.25855675970593 H 0.0 **** 0.06
10213 H 17.350709307275082 11.396872847177633 217.9123281261122 H 0.0 **** 0.06
10214 H 17.43082352971757 10.220815956868307 216.57793681282288 H 0.0 **** 0.06
10215 H 18.907602242487286 10.654284453895286 217.47247913449996 H 0.0 **** 0.06
10216 C 125.59942622756768 272.3436692641725 136.49072403998773 C 0.0 **** -0.24
10217 H 126.23789057483168 271.4780980769709 136.66852209599784 H 0.0 **** 0.06
10218 H 126.15618301966776 273.0975898904454 135.93400156457838 H 0.0 **** 0.06
10219 H 125.27981058332688 272.76048787609864 137.44651399631238 H 0.0 **** 0.06
10220 H 124.72496135517483 272.0390331522716 135.916581747655 H 0.0 **** 0.06
10221 C 142.90325894690858 157.8433907367198 227.24498022063062 C 0.0 **** -0.24
10222 H 141.84667643882753 157.63025755113233 227.40787282257463 H 0.0 **** 0.06
10223 H 143.0063198880675 158.57300262491748 226.44111997801997 H 0.0 **** 0.06
10224 H 143.42009878350396 156.92449953202168 226.9699458904251 H 0.0 **** 0.06
10225 H 143.33743536760898 158.24606340765843 228.1596954235095 H 0.0 **** 0.06
10226 C 29.165440901678323 279.0437559645279 156.35836691372702 C 0.0 **** -0.24
10227 H 29.454964222837162 278.47603491248407 155.47337854710042 H 0.0 **** 0.06
10228 H 28.128321512226023 278.81895157051963 156.6092388149961 H 0.0 **** 0.06
10229 H 29.267647634126575 280.10904758646757 156.1544382779224 H 0.0 **** 0.06
10230 H 29.809827931649863 278.76960752122 157.1930826331515 H 0.0 **** 0.06
10231 C 194.294103981207 225.9230637975427 73.99943856198891 C 0.0 **** -0.24
10232 H 193.81227890780633 225.74943392454537 73.03774390590524 H 0.0 **** 0.06
10233 H 193.9393073561876 225.18783239523165 74.72197125443898 H 0.0 **** 0.06
10234 H 194.05083747184761 226.92598108826456 74.35285145299801 H 0.0 **** 0.06
10235 H 195.37464261158084 225.83043382577176 73.8877456397943 H 0.0 **** 0.06
10236 C 230.2254485125984 313.00058213814896 294.95881328398394 C 0.0 **** -0.24
10237 H 231.21211679381577 312.83982017889366 295.39336206794025 H 0.0 **** 0.06
10238 H 230.03956019051128 314.0715296768228 294.86841827278477 H 0.0 **** 0.06
10239 H 229.46795319828746 312.5540033168526 295.603138944183 H 0.0 **** 0.06
10240 H 230.18217694878427 312.53982571259087 293.97275779331295 H 0.0 **** 0.06
10241 C 149.34460594276084 82.86044378880877 163.8597975918952 C 0.0 **** -0.24
10242 H 148.6933456475227 82.00104363635367 163.70318740115556 H 0.0 **** 0.06
10243 H 149.49085084345927 83.38312297164777 162.91485090128293 H 0.0 **** 0.06
10244 H 150.3081441165084 82.52101491396547 164.23985492495189 H 0.0 **** 0.06
10245 H 148.88754892000242 83.53604258561845 164.58289336292955 H 0.0 **** 0.06
10246 C 28.91822797253576 47.37088520698691 178.70444698000995 C 0.0 **** -0.24
10247 H 28.0872513951241 46.7075518972203 178.4667366666 H 0.0 **** 0.06
10248 H 29.33828205459048 47.771513098805684 177.78162564714506 H 0.0 **** 0.06
10249 H 29.68533496781737 46.813399329274944 179.24257587455355 H 0.0 **** 0.06
10250 H 28.56126569581204 48.190185446787154 179.328462524573 H 0.0 **** 0.06
10251 C 149.77085524749958 184.16082255839495 218.84411222724987 C 0.0 **** -0.24
10252 H 149.52125310420263 183.62319310167135 217.92852242049102 H 0.0 **** 0.06
10253 H 149.71649750306221 185.23507425135176 218.66056959663192 H 0.0 **** 0.06
10254 H 150.7811495407517 183.89619402597015 219.1567470500314 H 0.0 **** 0.06
10255 H 149.06490165302102 183.88922145901967 219.62844169350467 H 0.0 **** 0.06
10256 C 183.42980151118041 226.03318191648435 309.8555052279188 C 0.0 **** -0.24
10257 H 182.45550952712324 225.6206257785667 310.11898182318686 H 0.0 **** 0.06
10258 H 184.06434315302954 226.05742731504478 310.74145354215483 H 0.0 **** 0.06
10259 H 183.3033285522 227.0435360875822 309.4692638784543 H 0.0 **** 0.06
10260 H 183.89355777862295 225.4075533303508 309.0933514749165 H 0.0 **** 0.06
10261 C 216.36170920515406 216.89533816118447 194.8800033836191 C 0.0 **** -0.24
10262 H 215.44497120522965 216.7224007611646 195.44295137514717 H 0.0 **** 0.06
10263 H 216.15073402350168 216.82825853912948 193.8120782209083 H 0.0 **** 0.06
10264 H 217.10151720302306 216.14246964217935 195.1518920907899 H 0.0 **** 0.06
10265 H 216.74987730132398 217.88644922072757 195.11220747761558 H 0.0 **** 0.06
10266 C 78.7033417443653 182.71856520296654 124.41763909762054 C 0.0 **** -0.24
10267 H 79.38666669294028 183.56734377790826 124.41612517072764 H 0.0 **** 0.06
10268 H 78.22512626034003 182.63887877989504 125.39396300668704 H 0.0 **** 0.06
10269 H 79.26093019278088 181.80471866428286 124.20924768242574 H 0.0 **** 0.06
10270 H 77.94354053245837 182.86266145000394 123.6497453952083 H 0.0 **** 0.06
10271 C 75.57810954177094 216.24860776094351 54.10524602268106 C 0.0 **** -0.24
10272 H 75.67922304066249 216.62884427653228 53.08825998205543 H 0.0 **** 0.06
10273 H 75.90455558748005 215.20831570250746 54.13816668858874 H 0.0 **** 0.06
10274 H 74.53519381270257 216.3126563691738 54.4150571042087 H 0.0 **** 0.06
10275 H 76.19497843637569 216.84353507207732 54.778256875607326 H 0.0 **** 0.06
10276 C 124.18864776776903 158.9405478979067 71.97769799049038 C 0.0 **** -0.24
10277 H 124.68670276638716 158.9086695351147 71.00921911440028 H 0.0 **** 0.06
10278 H 124.5625765777989 158.13316858748573 72.60576107272928 H 0.0 **** 0.06
10279 H 123.1139255945138 158.82395228876373 71.83674386344867 H 0.0 **** 0.06
10280 H 124.38956477240839 159.89931858348518 72.45759432075323 H 0.0 **** 0.06
10281 C 215.1213577178268 225.0319093642359 307.00303043086853 C 0.0 **** -0.24
10282 H 215.3466838320697 224.75061941361614 305.9745172057669 H 0.0 **** 0.06
10283 H 214.2587076579328 225.69864637828232 307.016557505077 H 0.0 **** 0.06
10284 H 215.98062717658826 225.5406487928312 307.4382803983803 H 0.0 **** 0.06
10285 H 214.89698544948 224.13631832587058 307.58313829235703 H 0.0 **** 0.06
10286 C 254.34669325813084 79.83402842627734 210.49143802278854 C 0.0 **** -0.24
10287 H 253.83158453033147 80.18798718607994 211.38421321448243 H 0.0 **** 0.06
10288 H 255.4229677585421 79.84615226434636 210.66466782434463 H 0.0 **** 0.06
10289 H 254.10558319619165 80.48433733357493 209.65139540078633 H 0.0 **** 0.06
10290 H 254.0260448743421 78.81668690085223 210.26765423527996 H 0.0 **** 0.06
10291 C 48.753540083877 18.605949888646137 23.49160679131998 C 0.0 **** -0.24
10292 H 49.8389136700774 18.681531223751733 23.421728379167547 H 0.0 **** 0.06
10293 H 48.304709548059606 19.556014582010846 23.199744522994138 H 0.0 **** 0.06
10294 H 48.471718282591155 18.369669479493723 24.51710880746907 H 0.0 **** 0.06
10295 H 48.400615570163865 17.817600566466012 22.826985860045113 H 0.0 **** 0.06
10296 C 203.55685641367268 53.7025738977766 253.895770334818 C 0.0 **** -0.24
10297 H 204.4891896431862 53.444495546737585 254.3980906152563 H 0.0 **** 0.06
10298 H 203.60745973759816 54.733741544265456 253.54440308549766 H 0.0 **** 0.06
10299 H 202.72713468886326 53.59664756920702 254.59528432765921 H 0.0 **** 0.06
10300 H 203.40441733524574 53.03603387639683 253.04703829458725 H 0.0 **** 0.06
10301 C 266.34314422722815 10.566532134009393 221.0758442817184 C 0.0 **** -0.24
10302 H 265.8567126550437 11.432907994855384 220.62841100156254 H 0.0 **** 0.06
10303 H 265.8908348224709 10.35729096389035 222.04620539668014 H 0.0 **** 0.06
10304 H 267.40522780243964 10.773142339400238 221.20597517800525 H 0.0 **** 0.06
10305 H 266.21737350053394 9.702949660260984 220.42306454586927 H 0.0 **** 0.06
10306 C 38.658859458202556 230.524696988428 238.6863626983236 C 0.0 **** -0.24
10307 H 38.488295984726506 231.26570949367039 239.46748555653522 H 0.0 **** 0.06
10308 H 38.08740005682071 230.79478403987912 237.79880735729324 H 0.0 **** 0.06
10309 H 38.34050606452212 229.54442618517956 239.03953208267822 H 0.0 **** 0.06
10310 H 39.720184802930845 230.4952776014674 238.43996188309632 H 0.0 **** 0.06
10311 C 110.82144559921241 172.50639132581432 165.28377226134245 C 0.0 **** -0.24
10312 H 110.71756339157804 172.66192445149375 166.3573141938566 H 0.0 **** 0.06
10313 H 110.26395530295594 171.61705585049197 164.98978190089065 H 0.0 **** 0.06
10314 H 111.8748087883227 172.37302568368665 165.03694043985922 H 0.0 **** 0.06
10315 H 110.43061566634722 173.37415096329107 164.75160261833122 H 0.0 **** 0.06
10316 C 196.2981509167978 0.475229742506599 30.743778634624164 C 0.0 **** -0.24
10317 H 195.51145707783843 0.8250281664799672 31.412266642265536 H 0.0 **** 0.06
10318 H 197.19889515568178 0.26580191086002003 31.321701773382102 H 0.0 **** 0.06
10319 H 196.51283464716363 1.2443986029610983 30.00163746767541 H 0.0 **** 0.06
10320 H 195.96938692392382 -0.43390951998112826 30.240864739596162 H 0.0 **** 0.06
10321 C 60.80475519120665 250.62947686117178 311.09128463937685 C 0.0 **** -0.24
10322 H 60.29028033101096 250.64213652274947 312.05238125426956 H 0.0 **** 0.06
10323 H 60.15087701311154 250.19366790259326 310.3353830364903 H 0.0 **** 0.06
10324 H 61.71348323562205 250.03361102716954 311.1736472337943 H 0.0 **** 0.06
10325 H 61.06251401976323 251.64883698497454 310.80490958506044 H 0.0 **** 0.06
10326 C 81.75546941330524 312.8768822059489 2.200401998272099 C 0.0 **** -0.24
10327 H 80.70890147439701 313.150643698389 2.3402431657292624 H 0.0 **** 0.06
10328 H 82.11321782873796 312.3469249426853 3.0831758766959467 H 0.0 **** 0.06
10329 H 82.35000881222041 313.77895544147526 2.05081210046518 H 0.0 **** 0.06
10330 H 81.84793755706156 312.23238862249787 1.3264815149174893 H 0.0 **** 0.06
10331 C 97.92227138721242 95.31341822023262 23.410957726512436 C 0.0 **** -0.24
10332 H 97.79382314335734 95.1207883959477 24.476455334644754 H 0.0 **** 0.06
10333 H 98.83459331211381 95.890554747675 23.25468715412626 H 0.0 **** 0.06
10334 H 97.06678663079614 95.87611697540567 23.03893180411481 H 0.0 **** 0.06
10335 H 97.99538460357138 94.3658903033641 22.876695940038132 H 0.0 **** 0.06
10336 C 29.399339220820053 140.70192870923287 186.18878369695727 C 0.0 **** -0.24
10337 H 30.240445179425052 140.00936115062893 186.16835600703234 H 0.0 **** 0.06
10338 H 28.732840074755615 140.49012350966362 185.3523598819533 H 0.0 **** 0.06
10339 H 29.769083197572655 141.7239690114327 186.1094151899361 H 0.0 **** 0.06
10340 H 28.855592348803555 140.5853504035478 187.1262073937777 H 0.0 **** 0.06
10341 C 41.22506050518089 289.75001183649323 308.69250843530097 C 0.0 **** -0.24
10342 H 41.44960801837942 289.6856547872259 309.7573853936282 H 0.0 **** 0.06
10343 H 41.38359772121825 290.77303558124356 308.3496677668803 H 0.0 **** 0.06
10344 H 40.18697753205558 289.4665982716681 308.52248832923755 H 0.0 **** 0.06
10345 H 41.88135889355112 289.0760915621572 308.14208383726196 H 0.0 **** 0.06
10346 C 39.55233300572337 294.9871560063317 283.628884087381 C 0.0 **** -0.24
10347 H 39.6872566000024 295.3006847361444 284.66382645631484 H 0.0 **** 0.06
10348 H 38.81797341819487 295.6324830352764 283.1473974630404 H 0.0 **** 0.06
10349 H 39.20215459318911 293.95520325100705 283.6039854845157 H 0.0 **** 0.06
10350 H 40.50386057194521 295.06111130035947 283.1011035827124 H 0.0 **** 0.06
10351 C 245.45631194583876 214.15531414069412 98.72023802203418 C 0.0 **** -0.24
10352 H 244.772584008682 214.8176318815192 99.25164433556219 H 0.0 **** 0.06
10353 H 245.81067481728277 214.64972319377785 97.81573263581669 H 0.0 **** 0.06
10354 H 244.9353287577925 213.23613646131156 98.45197087489993 H 0.0 **** 0.06
10355 H 246.3043113030371 213.91845822056638 99.36165107657251 H 0.0 **** 0.06
10356 C 296.91844455962257 237.95867101263462 238.39673285700096 C 0.0 **** -0.24
10357 H 295.8932071204685 238.05797100765759 238.03917159298007 H 0.0 **** 0.06
10358 H 297.3292964169888 237.0050698026581 238.06354096276488 H 0.0 **** 0.06
10359 H 296.92729368369237 237.9977749563816 239.48660300086235 H 0.0 **** 0.06
10360 H 297.52203328084954 238.77426890321547 237.9986385390808 H 0.0 **** 0.06
10361 C 253.24419081080978 11.432921274206393 14.115264691384226 C 0.0 **** -0.24
10362 H 252.49061608879532 11.032928997196521 14.793670666165198 H 0.0 **** 0.06
10363 H 254.03409875751825 10.695350635640025 13.972424430987687 H 0.0 **** 0.06
10364 H 253.6680274753292 12.343347493080586 14.539375446967725 H 0.0 **** 0.06
10365 H 252.78278618194767 11.661346202738997 13.154240668350269 H 0.0 **** 0.06
10366 C 138.2153624674809 311.8201589251536 207.47231320229233 C 0.0 **** -0.24
10367 H 137.8404375313225 311.06573180016477 208.16409883104035 H 0.0 **** 0.06
10368 H 139.02734939541304 312.37393693792075 207.9454648685924 H 0.0 **** 0.06
10369 H 137.4097113879128 312.50637585389177 207.2135642712544 H 0.0 **** 0.06
10370 H 138.58367326092497 311.3341251136069 206.5690753367847 H 0.0 **** 0.06
10371 C 289.86423054890963 195.9486164290022 225.6475669906589 C 0.0 **** -0.24
10372 H 288.8525268330865 195.95685408860646 226.05432378116404 H 0.0 **** 0.06
10373 H 289.8743798613943 196.47166819076136 224.6904535160136 H 0.0 **** 0.06
10374 H 290.18900988018925 194.91897636086708 225.50376484193941 H 0.0 **** 0.06
10375 H 290.5382816550602 196.44998790076028 226.34240013997393 H 0.0 **** 0.06
10376 C 114.0182192908527 27.407960226949427 5.526670625761668 C 0.0 **** -0.24
10377 H 113.56302784598176 28.14297930477869 6.191325467547472 H 0.0 **** 0.06
10378 H 113.93067640247921 27.748601764212594 4.494562618074511 H 0.0 **** 0.06
10379 H 113.50693754126792 26.451509868936938 5.639865322055982 H 0.0 **** 0.06
10380 H 115.071054421768 27.289723408714366 5.783307709548367 H 0.0 **** 0.06
10381 C 13.466137658778052 12.14875171907039 36.371198668500966 C 0.0 **** -0.24
10382 H 12.972269493391195 11.742445345139373 37.2548421052895 H 0.0 **** 0.06
10383 H 14.52642058502397 11.895354078624337 36.40006226506529 H 0.0 **** 0.06
10384 H 13.35214065675325 13.2325801061791 36.35719653489684 H 0.0 **** 0.06
10385 H 13.014877771654483 11.723815405872642 35.475693791304394 H 0.0 **** 0.06
10386 C 120.8725947279654 96.67194033041949 206.01835927943904 C 0.0 **** -0.24
10387 H 120.38052080944456 97.46375093240843 206.5832084446762 H 0.0 **** 0.06
10388 H 120.12639551718715 96.11033585893566 205.4544785165873 H 0.0 **** 0.06
10389 H 121.38900348270792 96.00198246600814 206.70600876074838 H 0.0 **** 0.06
10390 H 121.59357139407268 97.1127479967366 205.32942996443813 H 0.0 **** 0.06
10391 C 107.78586915130359 123.6589041829611 75.98747305636232 C 0.0 **** -0.24
10392 H 107.77076039841646 123.29004039257717 77.01332030724464 H 0.0 **** 0.06
10393 H 106.76480905765757 123.84721182255572 75.65471507990307 H 0.0 **** 0.06
10394 H 108.24812166244817 122.91279129553101 75.34068597566085 H 0.0 **** 0.06
10395 H 108.36008279514365 124.5841746269096 75.94289003810147 H 0.0 **** 0.06
10396 C 265.53209070420314 68.03521855552609 163.02683133674054 C 0.0 **** -0.24
10397 H 266.3386409792676 68.22849757315285 163.73365396107408 H 0.0 **** 0.06
10398 H 265.4304245324086 66.95978400817097 162.87777135429837 H 0.0 **** 0.06
10399 H 265.76063897995954 68.5143018080939 162.07509015853861 H 0.0 **** 0.06
10400 H 264.59941955295506 68.43784079186835 163.42127677778933 H 0.0 **** 0.06
10401 C 261.73467913863345 306.20074843859607 245.14715559534173 C 0.0 **** -0.24
10402 H 260.90454600911886 306.123210549534 244.44502012899966 H 0.0 **** 0.06
10403 H 261.3687225940955 306.5827507414025 246.10058383154094 H 0.0 **** 0.06
10404 H 262.48584279916025 306.8821173430893 244.746980729187 H 0.0 **** 0.06
10405 H 262.1779467715413 305.2168553032635 245.29481888072488 H 0.0 **** 0.06
10406 C 3.954369888054657 67.32813646880737 48.892587302800706 C 0.0 **** -0.24
10407 H 4.6795143209419905 67.16261399193624 48.09459468397617 H 0.0 **** 0.06
10408 H 2.9782528586534625 66.96047077206728 48.57689626994167 H 0.0 **** 0.06
10409 H 3.889750559309931 68.3943781597008 49.10852096614866 H 0.0 **** 0.06
10410 H 4.272506495263372 66.79431788507694 49.78770303030191 H 0.0 **** 0.06
10411 C 26.916292770041906 164.6558109367424 154.43370044572538 C 0.0 **** -0.24
10412 H 27.329228445849793 165.5984249231065 154.7920429457768 H 0.0 **** 0.06
10413 H 25.945890468386892 164.48227034918494 154.90068587946416 H 0.0 **** 0.06
10414 H 27.593466926805007 163.84128679533438 154.6910930158411 H 0.0 **** 0.06
10415 H 26.79576631617155 164.7001157663026 153.35085243690764 H 0.0 **** 0.06
10416 C 76.42204310079984 175.84607102328852 6.381055658606385 C 0.0 **** -0.24
10417 H 75.6254066472147 176.5891712600968 6.339429334265063 H 0.0 **** 0.06
10418 H 76.44458831576026 175.39385025231906 7.372137105162977 H 0.0 **** 0.06
10419 H 77.37871242943172 176.3275965450917 6.179136574982138 H 0.0 **** 0.06
10420 H 76.23752856944449 175.07457180948603 5.632864035412709 H 0.0 **** 0.06
10421 C 306.10535441571574 295.09363783090413 97.31006968559862 C 0.0 **** -0.24
10422 H 306.2103194086128 294.21459198166383 96.67399099849334 H 0.0 **** 0.06
10423 H 305.82169314583535 295.951722622274 96.7002023824312 H 0.0 **** 0.06
10424 H 307.05436006952357 295.29777265888856 97.80606221763566 H 0.0 **** 0.06
10425 H 305.3351655290039 294.90948449533465 98.05901025555946 H 0.0 **** 0.06
10426 C 301.366910219016 88.16013297978748 263.5795561281566 C 0.0 **** -0.24
10427 H 302.03081604812627 87.52901410677674 262.98899930027306 H 0.0 **** 0.06
10428 H 301.39330326826064 87.84121475796394 264.6208269469848 H 0.0 **** 0.06
10429 H 300.34986406625035 88.07338212342461 263.1973863211657 H 0.0 **** 0.06
10430 H 301.69418205371073 89.19749716178507 263.5086896992563 H 0.0 **** 0.06
10431 C 236.02877007732798 78.4648471807939 306.0041143511714 C 0.0 **** -0.24
10432 H 235.44104313855007 77.5624798743101 305.83763120958935 H 0.0 **** 0.06
10433 H 236.54716063323718 78.39000584083055 306.96046384746666 H 0.0 **** 0.06
10434 H 235.3684829951552 79.33151570581688 306.0148838808854 H 0.0 **** 0.06
10435 H 236.75975193597785 78.57588711573493 305.2025271693343 H 0.0 **** 0.06
10436 C 53.76968405447991 242.7861743984572 20.266678253122663 C 0.0 **** -0.24
10437 H 53.00783465236569 243.55715648528158 20.384353496123808 H 0.0 **** 0.06
10438 H 53.31018735154893 241.80324519162824 20.37246722226523 H 0.0 **** 0.06
10439 H 54.53602269157375 242.9145924271641 21.030898935764043 H 0.0 **** 0.06
10440 H 54.223220700307365 242.87138708066612 19.278946173186355 H 0.0 **** 0.06
10441 C 151.60132322811216 115.57350804660592 119.14659402730868 C 0.0 **** -0.24
10442 H 151.534785702847 115.52109981634871 120.23283271217858 H 0.0 **** 0.06
10443 H 151.17467948493913 114.66912477370178 118.71241161909583 H 0.0 **** 0.06
10444 H 152.64652749360505 115.66003645624394 118.8503454393612 H 0.0 **** 0.06
10445 H 151.0500062746283 116.44337647209048 118.79019833849853 H 0.0 **** 0.06
10446 C 221.5169162740703 274.22044073647214 9.697477044154752 C 0.0 **** -0.24
10447 H 221.40828748450195 274.3496015094587 8.620836143645235 H 0.0 **** 0.06
10448 H 222.4126699072753 273.63535561862994 9.904646494704409 H 0.0 **** 0.06
10449 H 220.64371996502592 273.7017821117533 10.091533868444657 H 0.0 **** 0.06
10450 H 221.60390160812332 275.198336533203 10.172455694634081 H 0.0 **** 0.06
10451 C 78.35158652270772 80.94991237670715 180.51696492334582 C 0.0 **** -0.24
10452 H 77.59114041778923 81.4444844856526 179.9131946877194 H 0.0 **** 0.06
10453 H 79.33685088356609 81.15264996998297 180.09732465271702 H 0.0 **** 0.06
10454 H 78.17050631212533 79.87565606111252 180.51954754257025 H 0.0 **** 0.06
10455 H 78.30673440727762 81.32942158075016 181.5382310032076 H 0.0 **** 0.06
10456 C 141.07198903462614 256.0816524507172 288.37243973329043 C 0.0 **** -0.24
10457 H 140.05702106783923 255.84174482234184 288.6865713911883 H 0.0 **** 0.06
10458 H 141.09722834706892 256.20811393577515 287.28972932722695 H 0.0 **** 0.06
10459 H 141.74243699133945 255.2706403350737 288.6595882013912 H 0.0 **** 0.06
10460 H 141.39316656558546 257.00548434239096 288.8539685291287 H 0.0 **** 0.06
10461 C 205.7785953294886 304.2749175841682 232.53181656938148 C 0.0 **** -0.24
10462 H 206.695323851782 304.0954506268953 233.09325648273392 H 0.0 **** 0.06
10463 H 204.91773555616294 304.01959230827435 233.15193898983438 H 0.0 **** 0.06
10464 H 205.77576933677693 303.65838425667897 231.63385498201293 H 0.0 **** 0.06
10465 H 205.72467261246737 305.327235682161 232.2521197460019 H 0.0 **** 0.06
10466 C 149.040680320406 146.2779844041623 308.7235214075212 C 0.0 **** -0.24
10467 H 148.29252284351267 147.05807618140534 308.5833552275473 H 0.0 **** 0.06
10468 H 149.34353875784473 146.2488518355861 309.7703210117568 H 0.0 **** 0.06
10469 H 149.90882736660097 146.48962615257048 308.09942700293334 H 0.0 **** 0.06
10470 H 148.616351360055 145.3137107030581 308.4410758026769 H 0.0 **** 0.06
10471 C 204.56128486661288 22.112917747077006 164.2368292139821 C 0.0 **** -0.24
10472 H 203.48166151902825 22.24829685578169 164.17613101015343 H 0.0 **** 0.06
10473 H 205.05730751196666 22.87683139370432 163.63862538350457 H 0.0 **** 0.06
10474 H 204.82432092889167 21.125320821943006 163.85625635753797 H 0.0 **** 0.06
10475 H 204.88052169100212 22.199018875910753 165.2747602275192 H 0.0 **** 0.06
10476 C 262.32979350451757 81.61806264523838 36.88839575763586 C 0.0 **** -0.24
10477 H 263.26212100679334 81.54492027417135 36.328375246878636 H 0.0 **** 0.06
10478 H 262.54998927570176 81.6662262113137 37.955238036068295 H 0.0 **** 0.06
10479 H 261.7141151863724 80.7421300882645 36.68328672462292 H 0.0 **** 0.06
10480 H 261.79445553357556 82.51819152172428 36.58522812191535 H 0.0 **** 0.06
10481 C 118.71752037858235 13.980939911030475 220.04949945948135 C 0.0 **** -0.24
10482 H 119.70772939187759 13.988311134776168 219.5948456117249 H 0.0 **** 0.06
10483 H 118.29475899078372 14.985633834997643 220.01637419467872 H 0.0 **** 0.06
10484 H 118.79724165034514 13.653619150303143 221.08618648499606 H 0.0 **** 0.06
10485 H 118.0712295284275 13.29609469676673 219.50105938372485 H 0.0 **** 0.06
10486 C 218.75659489512202 235.99998858322562 300.9234220454375 C 0.0 **** -0.24
10487 H 218.991144462712 234.93896366831012 300.997232422797 H 0.0 **** 0.06
10488 H 218.34339880331214 236.21296393408574 299.93716962204553 H 0.0 **** 0.06
10489 H 219.66523058661238 236.58363485819243 301.0708450942677 H 0.0 **** 0.06
10490 H 218.02577205866595 236.26543646403007 301.6879786220067 H 0.0 **** 0.06
10491 C 156.80520707493218 238.67514941749874 135.92829403278893 C 0.0 **** -0.24
10492 H 156.7147878226076 239.72321781395544 135.64468102109487 H 0.0 **** 0.06
10493 H 157.83571910858007 238.34794461080824 135.7862858717606 H 0.0 **** 0.06
10494 H 156.143401736197 238.071168225391 135.30545635339854 H 0.0 **** 0.06
10495 H 156.52591893526431 238.55640300178743 136.9755183529778 H 0.0 **** 0.06
10496 C 181.68637571575613 116.4821778841623 37.05044841874707 C 0.0 **** -0.24
10497 H 181.87899051553939 115.5855647904821 36.46056380881427 H 0.0 **** 0.06
10498 H 180.6404304691779 116.49575302429537 37.35823504994789 H 0.0 **** 0.06
10499 H 181.89963914597809 117.3644920741109 36.44777294610785 H 0.0 **** 0.06
10500 H 182.32594743450278 116.48089336883459 37.93304896046905 H 0.0 **** 0.06
10501 C 19.750586358487737 82.05533932642953 183.56366677139204 C 0.0 **** -0.24
10502 H 19.766520165673313 81.28361530266105 184.3327763158922 H 0.0 **** 0.06
10503 H 20.76914544540432 82.25182683173978 183.2252921154892 H 0.0 **** 0.06
10504 H 19.32083620613055 82.96863941008246 183.9741848711144 H 0.0 **** 0.06
10505 H 19.14660292232206 81.71674316809955 182.72134616488427 H 0.0 **** 0.06
10506 C 160.31514974707022 105.14834853050388 284.35869294411657 C 0.0 **** -0.24
10507 H 160.11445762094291 105.02992871935493 283.2949590683055 H 0.0 **** 0.06
10508 H 161.07570786322486 104.43102026285231 284.66692476909327 H 0.0 **** 0.06
10509 H 159.39939915960008 104.97132439562145 284.92319774428165 H 0.0 **** 0.06
10510 H 160.66986377748674 106.16107021547805 284.55159472680197 H 0.0 **** 0.06
10511 C 173.51318166868623 14.292643620177614 10.733383232765902 C 0.0 **** -0.24
10512 H 172.70553633657556 13.891312241067226 10.12173178890356 H 0.0 **** 0.06
10513 H 173.1160909559526 14.606939571554278 11.697833523920394 H 0.0 **** 0.06
10514 H 173.96074392781105 15.147806201031983 10.227656694826294 H 0.0 **** 0.06
10515 H 174.27010795163562 13.522251581980925 10.884634894178816 H 0.0 **** 0.06
10516 C 292.9783265580297 201.8193633023492 89.2266077542144 C 0.0 **** -0.24
10517 H 292.43303267478626 201.40340307746152 88.37836366777293 H 0.0 **** 0.06
10518 H 293.35701828994075 201.00779188663614 89.84783215710672 H 0.0 **** 0.06
10519 H 292.3097551115376 202.4467040075416 89.81472611215139 H 0.0 **** 0.06
10520 H 293.8131131724726 202.4189847492434 88.86196987296154 H 0.0 **** 0.06
10521 C 275.8651467909002 226.64154128463517 78.35426119126305 C 0.0 **** -0.24
10522 H 276.2258208218148 227.37538854066975 77.63298052356004 H 0.0 **** 0.06
10523 H 276.6902070849882 226.32580749013223 78.99404712377162 H 0.0 **** 0.06
10524 H 275.46620988714596 225.77733965045138 77.82327038952019 H 0.0 **** 0.06
10525 H 275.0809225235617 227.08704786780203 78.96500297430225 H 0.0 **** 0.06
10526 C 92.68137310641666 60.80083172096627 87.78962131390128 C 0.0 **** -0.24
10527 H 92.4667528009332 60.05679986861068 88.55656921042274 H 0.0 **** 0.06
10528 H 91.98921254161277 60.673489107406084 86.95712088603344 H 0.0 **** 0.06
10529 H 93.70383683381877 60.67331112432282 87.43596927094055 H 0.0 **** 0.06
10530 H 92.56367411957297 61.799495262732194 88.21019761925183 H 0.0 **** 0.06
10531 C 130.1856611567284 79.35042220109318 247.07840799365607 C 0.0 **** -0.24
10532 H 129.9699504378544 79.76711091418588 248.06179283594844 H 0.0 **** 0.06
10533 H 130.00068743917527 78.27591884493933 247.09055768719242 H 0.0 **** 0.06
10534 H 131.22989141038616 79.53608432097462 246.82670955276922 H 0.0 **** 0.06
10535 H 129.5427812734141 79.82149717270471 246.33575318113014 H 0.0 **** 0.06
10536 C 177.43141413703694 179.3349352893855 95.68941695519914 C 0.0 **** -0.24
10537 H 177.41425903068944 180.3233490447035 96.14831378390323 H 0.0 **** 0.06
10538 H 177.25037002286786 178.57772552223014 96.45203268116938 H 0.0 **** 0.06
10539 H 178.40608678325685 179.16426650998466 95.2317262816986 H 0.0 **** 0.06
10540 H 176.65612090060966 179.27565813683418 94.92575147528169 H 0.0 **** 0.06
10541 C 93.0645559079687 218.85611642145906 261.71627308991845 C 0.0 **** -0.24
10542 H 93.46048810732907 217.90380549069306 261.3655396752645 H 0.0 **** 0.06
10543 H 92.00404521111017 218.74664676922546 261.94481588812823 H 0.0 **** 0.06
10544 H 93.19249697429146 219.61127367752485 260.9406192026358 H 0.0 **** 0.06
10545 H 93.60058551818238 219.16395023624548 262.61452414234225 H 0.0 **** 0.06
10546 C 7.608267139279178 216.03984068812963 241.86826997573732 C 0.0 **** -0.24
10547 H 7.566681486731682 216.1166954542996 242.95429222401677 H 0.0 **** 0.06
10548 H 7.963209799217424 216.9822119473037 241.4502371168398 H 0.0 **** 0.06
10549 H 6.613313141887318 215.82176068203614 241.48073545852077 H 0.0 **** 0.06
10550 H 8.29178499166548 215.23837028168822 241.58671734077308 H 0.0 **** 0.06
10551 C 172.45712093700024 53.723058651601406 284.16336940126376 C 0.0 **** -0.24
10552 H 172.4394908414439 52.634594695078334 284.10889239045764 H 0.0 **** 0.06
10553 H 171.61931273109377 54.06975167734541 284.76866247717015 H 0.0 **** 0.06
10554 H 172.37781741417035 54.13841174761717 283.159166681236 H 0.0 **** 0.06
10555 H 173.39315202314214 54.04799892311783 284.61783059481337 H 0.0 **** 0.06
10556 C 15.495949768519552 240.649138241879 6.406158808059104 C 0.0 **** -0.24
10557 H 15.318605276549249 240.1713749763621 5.442187051704309 H 0.0 **** 0.06
10558 H 14.5640917115702 240.68420250959966 6.970440128251653 H 0.0 **** 0.06
10559 H 15.86363666402707 241.66224755000488 6.246589945663061 H 0.0 **** 0.06
10560 H 16.237219832798303 240.0766793970917 6.964097796210012 H 0.0 **** 0.06
10561 C 13.936459194225051 276.52491589033644 209.4739978280852 C 0.0 **** -0.24
10562 H 14.545484943828527 275.6700984325064 209.18103862083262 H 0.0 **** 0.06
10563 H 14.07158910443988 277.3317315316739 208.7523727269841 H 0.0 **** 0.06
10564 H 14.241138419920205 276.86660670416114 210.4628624821786 H 0.0 **** 0.06
10565 H 12.886829783046991 276.2321032981589 209.49894246493977 H 0.0 **** 0.06
10566 C 208.7500444300294 109.53129419597113 94.00080668036026 C 0.0 **** -0.24
10567 H 209.14712042440064 108.60948410213132 93.57761033313201 H 0.0 **** 0.06
10568 H 209.07969589984563 110.37899613030478 93.40013814549576 H 0.0 **** 0.06
10569 H 209.11185211878944 109.64746777040023 95.02292078919271 H 0.0 **** 0.06
10570 H 207.66002510033047 109.4907235083829 94.00444505675387 H 0.0 **** 0.06
10571 C 207.53722545226094 166.88983401045817 310.57102010220046 C 0.0 **** -0.24
10572 H 207.09900136646928 167.6335954769782 311.2356800727897 H 0.0 **** 0.06
10573 H 208.28867072943837 167.3644244551465 309.9402457735234 H 0.0 **** 0.06
10574 H 206.75687194581224 166.45771717535138 309.94394211714746 H 0.0 **** 0.06
10575 H 208.00435776732388 166.10359893435657 311.1642124453415 H 0.0 **** 0.06
10576 C 29.92683409896165 310.90708883079503 200.83235067468235 C 0.0 **** -0.24
10577 H 29.203703299068707 310.91125823402535 200.0163679449384 H 0.0 **** 0.06
10578 H 30.86571425989206 310.4764234609615 200.4845896479759 H 0.0 **** 0.06
10579 H 29.537091432625147 310.3118245227437 201.65831399658174 H 0.0 **** 0.06
10580 H 30.098440485028704 311.92924022594616 201.170517979179 H 0.0 **** 0.06
10581 C 136.81566880091597 137.37946516116125 279.2189405537563 C 0.0 **** -0.24
10582 H 136.93951286572852 136.86006472905316 278.2689309819302 H 0.0 **** 0.06
10583 H 135.88747751917887 137.9513483593897 279.2025422173707 H 0.0 **** 0.06
10584 H 137.65623120805074 138.05561784477703 279.3746541932214 H 0.0 **** 0.06
10585 H 136.7799243193644 136.65133157539222 280.02890917078184 H 0.0 **** 0.06
10586 C 285.27796452628564 213.7057359910272 81.43397255830166 C 0.0 **** -0.24
10587 H 285.8994444757448 214.2394196630114 82.15380223649493 H 0.0 **** 0.06
10588 H 284.5563293084743 214.39582764065585 80.99622093950913 H 0.0 **** 0.06
10589 H 284.74876483546154 212.8983313476911 81.94016993036911 H 0.0 **** 0.06
10590 H 285.90814245467686 213.2908050559326 80.64838969183182 H 0.0 **** 0.06
10591 C 190.52648233325903 245.68009278143788 113.10719657072843 C 0.0 **** -0.24
10592 H 189.7619134480762 246.1324460947378 113.74008617963719 H 0.0 **** 0.06
10593 H 190.86468161983453 246.4072144402054 112.36940277650208 H 0.0 **** 0.06
10594 H 190.10869014142003 244.81102279008968 112.59833373307634 H 0.0 **** 0.06
10595 H 191.370450821083 245.369224121807 113.7240857213369 H 0.0 **** 0.06
10596 C 304.84025174687804 143.33191814461395 93.77264186785061 C 0.0 **** -0.24
10597 H 305.7463633596107 143.16397856876029 94.35454339985031 H 0.0 **** 0.06
10598 H 303.9678551808288 143.21742600571258 94.4172115992254 H 0.0 **** 0.06
10599 H 304.7908129931351 142.60490744319378 92.96112378049213 H 0.0 **** 0.06
10600 H 304.8556942415461 144.3391538323757 93.35746221487082 H 0.0 **** 0.06
10601 C 237.44769611848534 162.46338163124722 276.11073914591793 C 0.0 **** -0.24
10602 H 237.95393234862368 163.2526083420953 275.55389048315806 H 0.0 **** 0.06
10603 H 237.79945318836786 162.46557228551018 277.1437844147478 H 0.0 **** 0.06
10604 H 237.66788378386536 161.49877729423997 275.65347531105226 H 0.0 **** 0.06
10605 H 236.37231397908812 162.63843519466377 276.0926324879821 H 0.0 **** 0.06
10606 C 213.03020818876183 266.16084804489134 138.13383490795854 C 0.0 **** -0.24
10607 H 212.91353319784264 267.24428977306735 138.1021281308929 H 0.0 **** 0.06
10608 H 212.3056289420433 265.6980532050107 137.46368850440783 H 0.0 **** 0.06
10609 H 212.86195059494872 265.807347057283 139.15133074870525 H 0.0 **** 0.06
10610 H 214.0391967932735 265.89431207677944 137.8187874119459 H 0.0 **** 0.06
10611 C 121.38350764036792 309.2872206976709 298.9488195049101 C 0.0 **** -0.24
10612 H 121.76732819011482 308.5215220051461 298.2743169846125 H 0.0 **** 0.06
10613 H 122.21059706862982 309.724965795711 299.5077512151753 H 0.0 **** 0.06
10614 H 120.67213522331062 308.838079253221 299.6414699178537 H 0.0 **** 0.06
10615 H 120.88505269235631 310.0639314281791 298.369576505763 H 0.0 **** 0.06
10616 C 233.11440453272164 125.96169765518042 145.3827300078263 C 0.0 **** -0.24
10617 H 233.7727365019001 125.4375584914529 146.07508288210502 H 0.0 **** 0.06
10618 H 232.1221458631481 125.50970249075817 145.41334800326806 H 0.0 **** 0.06
10619 H 233.5159540997841 125.88724757016115 144.37244763291326 H 0.0 **** 0.06
10620 H 233.04504238163923 127.01055923807138 145.66995921736344 H 0.0 **** 0.06
10621 C 14.065069430845199 239.0871279752397 32.62113735227581 C 0.0 **** -0.24
10622 H 14.220344040746838 239.25563376032613 31.554960091700195 H 0.0 **** 0.06
10623 H 15.008857044015187 238.79460069936061 33.08253857569184 H 0.0 **** 0.06
10624 H 13.330077437386208 238.2951126579719 32.7606395084307 H 0.0 **** 0.06
10625 H 13.702823099570764 240.0053845119573 33.08401409695114 H 0.0 **** 0.06
10626 C 183.52553264400643 91.98026973215212 4.519841826252701 C 0.0 **** -0.24
10627 H 183.5763554554863 92.6022800042646 5.414324704686635 H 0.0 **** 0.06
10628 H 183.40854989003623 92.61610274541172 3.641829430019129 H 0.0 **** 0.06
10629 H 182.67374852524335 91.30448084035962 4.595065078750963 H 0.0 **** 0.06
10630 H 184.4436873441431 91.39947621175759 4.428752937880191 H 0.0 **** 0.06
10631 C 148.70344389065326 118.35100965861275 204.6963251764846 C 0.0 **** -0.24
10632 H 149.67874103300426 117.86930006493878 204.63180620009916 H 0.0 **** 0.06
10633 H 148.03853178214987 117.9273997888694 203.94339694766882 H 0.0 **** 0.06
10634 H 148.81420441209855 119.421392709195 204.52247586717584 H 0.0 **** 0.06
10635 H 148.2812285441625 118.185100132017 205.68799577959163 H 0.0 **** 0.06
10636 C 20.93520757810535 295.3103532884053 283.46401582365985 C 0.0 **** -0.24
10637 H 21.651062569281123 294.6314835809238 283.0000504112117 H 0.0 **** 0.06
10638 H 20.60299941315651 296.04329451900327 282.7292871428734 H 0.0 **** 0.06
10639 H 21.411244709913575 295.82308975923127 284.29984553756765 H 0.0 **** 0.06
10640 H 20.078434709104627 294.74303427775976 283.82537538668714 H 0.0 **** 0.06
10641 C 12.144059377710732 77.30062537288981 311.7286345889588 C 0.0 **** -0.24
10642 H 12.2643089735665 76.8327915202419 312.70562889283235 H 0.0 **** 0.06
10643 H 12.571708870103478 76.65523764415462 310.9613315579015 H 0.0 **** 0.06
10644 H 12.655461504299168 78.26272610688721 311.7222012001766 H 0.0 **** 0.06
10645 H 11.083638841747089 77.45153086352718 311.5262138134557 H 0.0 **** 0.06
10646 C 187.95196028457121 169.44877374990955 123.99499705534922 C 0.0 **** -0.24
10647 H 187.28655564870797 169.16783415035616 124.81118879803046 H 0.0 **** 0.06
10648 H 188.1615177740594 170.51647641570008 124.04895092642695 H 0.0 **** 0.06
10649 H 187.47467034840957 169.2189139089964 123.04255119393332 H 0.0 **** 0.06
10650 H 188.88379271726086 168.8902588714687 124.07813425313725 H 0.0 **** 0.06
10651 C 165.4641311824352 92.60077980653443 307.3774053416162 C 0.0 **** -0.24
10652 H 165.21291512287064 91.80289465651893 306.6789097248805 H 0.0 **** 0.06
10653 H 166.37745697619312 93.09664346495848 307.04872528969656 H 0.0 **** 0.06
10654 H 165.61505066130377 92.17899909885693 308.3706956777532 H 0.0 **** 0.06
10655 H 164.64869296177255 93.32433806142078 307.40951945589705 H 0.0 **** 0.06
10656 C 244.92700388548505 286.71067774755363 75.05681700894627 C 0.0 **** -0.24
10657 H 244.41124863082933 287.3090910159275 74.3052676551514 H 0.0 **** 0.06
10658 H 244.41471133411304 285.75566055838004 75.17432811935421 H 0.0 **** 0.06
10659 H 244.92578384307643 287.2428656859941 76.00851279197485 H 0.0 **** 0.06
10660 H 245.95452765288474 286.5355258589368 74.74003779945673 H 0.0 **** 0.06
10661 C 297.73549001025003 102.58838240763279 139.2180243244385 C 0.0 **** -0.24
10662 H 296.8044525983517 103.04028568668005 138.8774981007296 H 0.0 **** 0.06
10663 H 298.2589774047838 103.28517574553365 139.8735175334392 H 0.0 **** 0.06
10664 H 298.3632193446867 102.35819704481767 138.3568124259287 H 0.0 **** 0.06
10665 H 297.516019616156 101.67023445650199 139.76366471830787 H 0.0 **** 0.06
10666 C 164.25158353078757 26.947420855056976 273.66880084353113 C 0.0 **** -0.24
10667 H 164.46605152477906 27.305545456722314 272.6622216880522 H 0.0 **** 0.06
10668 H 165.04978328182682 27.26056650874557 274.34329051434906 H 0.0 **** 0.06
10669 H 164.18754636963064 25.8592906403519 273.6618561973379 H 0.0 **** 0.06
10670 H 163.30409634024147 27.365857982670036 274.00893279699693 H 0.0 **** 0.06
10671 C 176.2882256160184 296.0215158165234 238.04711139453116 C 0.0 **** -0.24
10672 H 176.70274981314896 295.0140260255985 237.99965229960446 H 0.0 **** 0.06
10673 H 176.68994194915092 296.53942625136045 238.91744932578993 H 0.0 **** 0.06
10674 H 175.20283973218199 295.96441720366397 238.126323636294 H 0.0 **** 0.06
10675 H 176.55703316650425 296.56685620027673 237.1423563353083 H 0.0 **** 0.06
10676 C 54.304261853615145 290.81132583169267 53.197255526537504 C 0.0 **** -0.24
10677 H 53.832445386427224 290.1085018276687 52.51060423918801 H 0.0 **** 0.06
10678 H 55.33345712044667 290.50183252102045 53.38195893206532 H 0.0 **** 0.06
10679 H 53.755069054973035 290.82459726289153 54.1375807253433 H 0.0 **** 0.06
10680 H 54.29809270312643 291.8082637309881 52.758179097874006 H 0.0 **** 0.06
10681 C 22.458950485862033 111.78026124204132 44.96587769320408 C 0.0 **** -0.24
10682 H 22.976922851629524 112.21203147777459 44.10882550868621 H 0.0 **** 0.06
10683 H 22.979004230164833 112.05923205343831 45.88262997279017 H 0.0 **** 0.06
10684 H 22.444186846364346 110.69405325765277 44.87257923368753 H 0.0 **** 0.06
10685 H 21.436220086226683 112.1565454986482 44.99925493754216 H 0.0 **** 0.06
10686 C 235.74077394026847 310.93101309744395 257.5088117173629 C 0.0 **** -0.24
10687 H 235.2491805661761 310.47012777800524 256.65155794473054 H 0.0 **** 0.06
10688 H 235.8598676031309 310.1920966058215 258.2999390513831 H 0.0 **** 0.06
10689 H 235.1333105478566 311.7597291801618 257.873317181677 H 0.0 **** 0.06
10690 H 236.7198761735475 311.3041191638401 257.20740330238067 H 0.0 **** 0.06
10691 C 149.62530920046828 50.26567259753912 15.581858243867984 C 0.0 **** -0.24
10692 H 149.25579408865985 49.25072628085866 15.430686445297624 H 0.0 **** 0.06
10693 H 150.71507636309508 50.258131233110134 15.585982205600331 H 0.0 **** 0.06
10694 H 149.2599406881759 50.646669597943 16.5350814507715 H 0.0 **** 0.06
10695 H 149.26883903011026 50.905716344315294 14.774504311690592 H 0.0 **** 0.06
10696 C 107.5757571872303 276.4479521626015 106.15774822210133 C 0.0 **** -0.24
10697 H 107.82702902520603 275.7419307251603 106.9498962813413 H 0.0 **** 0.06
10698 H 107.06163692610906 275.92204971442806 105.35362552041516 H 0.0 **** 0.06
10699 H 108.48949623369893 276.8992214378396 105.77045460198434 H 0.0 **** 0.06
10700 H 106.92697596323612 277.2263489081382 106.55768918509207 H 0.0 **** 0.06
10701 C 39.10615835757119 260.5113274003545 93.01758191690246 C 0.0 **** -0.24
10702 H 38.651280626616426 259.5226308258646 93.06274469010927 H 0.0 **** 0.06
10703 H 38.70285426034917 261.058673139106 92.16493321869814 H 0.0 **** 0.06
10704 H 40.18569194681123 260.4096576873934 92.90621832661986 H 0.0 **** 0.06
10705 H 38.88543130693756 261.0551280162685 93.93639626795465 H 0.0 **** 0.06
10706 C 102.65233001606626 218.03956919010565 148.10176255006016 C 0.0 **** -0.24
10707 H 102.40485452824782 219.0756762959021 148.33465587807987 H 0.0 **** 0.06
10708 H 103.60562907452885 218.00323211598572 147.57444587823036 H 0.0 **** 0.06
10709 H 101.87095768896953 217.61366622300085 147.4715290190348 H 0.0 **** 0.06
10710 H 102.7253923713273 217.46765155806924 149.02655196521022 H 0.0 **** 0.06
10711 C 138.2476771656359 108.87833177562769 147.68051830711232 C 0.0 **** -0.24
10712 H 137.2580053605156 108.97835647720666 147.23494549975013 H 0.0 **** 0.06
10713 H 138.4988184877201 107.82076851567109 147.77220443283582 H 0.0 **** 0.06
10714 H 138.24807480000013 109.33843446636885 148.6679638497531 H 0.0 **** 0.06
10715 H 138.98226568719554 109.37380823369946 147.04773309721332 H 0.0 **** 0.06
10716 C 43.73543971535733 292.37420796074343 236.54278323491994 C 0.0 **** -0.24
10717 H 44.64775556631534 292.0285447926658 236.0552372180359 H 0.0 **** 0.06
10718 H 43.88467863322634 292.3905244067789 237.62203893467384 H 0.0 **** 0.06
10719 H 42.91575622211869 291.69870286236437 236.29790125690653 H 0.0 **** 0.06
10720 H 43.495868466006556 293.37893209185484 236.19300703251588 H 0.0 **** 0.06
10721 C 214.2830116904916 121.61635104148917 290.7524604893158 C 0.0 **** -0.24
10722 H 213.80106035680086 121.89582742189526 291.68942485124126 H 0.0 **** 0.06
10723 H 214.90868623593812 120.73850135881804 290.9132511825633 H 0.0 **** 0.06
10724 H 214.89936196309543 122.4433399666699 290.40047184291745 H 0.0 **** 0.06
10725 H 213.52086094889046 121.38846159061288 290.00629696716135 H 0.0 **** 0.06
10726 C 222.63611543006124 94.59470778030726 149.65693168396513 C 0.0 **** -0.24
10727 H 221.98231562730876 93.77623282073009 149.35739386699413 H 0.0 **** 0.06
10728 H 222.61382348747588 95.37520913659765 148.8966685386261 H 0.0 **** 0.06
10729 H 223.65534650248009 94.22321259093641 149.767506091386 H 0.0 **** 0.06
10730 H 222.29420994552171 95.0033960651125 150.60812508076276 H 0.0 **** 0.06
10731 C 244.7129724106645 229.71931535354327 108.96159360116533 C 0.0 **** -0.24
10732 H 245.5166316853332 228.9926067552231 109.07656198466819 H 0.0 **** 0.06
10733 H 243.75409982257509 229.20139075010906 108.94117755611188 H 0.0 **** 0.06
10734 H 244.85064246080373 230.26798727631143 108.03017241509195 H 0.0 **** 0.06
10735 H 244.73198052164162 230.41674964637593 109.79976032338061 H 0.0 **** 0.06
10736 C 242.14032605962026 109.29653889879995 6.003283293408359 C 0.0 **** -0.24
10737 H 241.3196032315447 108.78152761793814 6.501415569867561 H 0.0 **** 0.06
10738 H 243.0429303786274 108.68891948850273 6.066957815757235 H 0.0 **** 0.06
10739 H 242.31408031492833 110.25689348991645 6.489081471344903 H 0.0 **** 0.06
10740 H 241.88536760669922 109.45987134837 4.956330550089788 H 0.0 **** 0.06
10741 C 24.07766712110947 97.9099098173036 30.27640037783931 C 0.0 **** -0.24
10742 H 24.78170947817395 97.79869679651901 29.451415907776976 H 0.0 **** 0.06
10743 H 24.371139303013877 97.25215579633192 31.094783587682628 H 0.0 **** 0.06
10744 H 23.075739044469202 97.64560484460543 29.93806569003658 H 0.0 **** 0.06
10745 H 24.083849153271387 98.94455014065994 30.621322890810518 H 0.0 **** 0.06
10746 C 36.15213006108232 64.23920128249358 293.7356568760343 C 0.0 **** -0.24
10747 H 35.91423121419345 64.23044110653268 292.67216134427395 H 0.0 **** 0.06
10748 H 36.69002929235509 65.155560046559 293.98022462918226 H 0.0 **** 0.06
10749 H 36.77605346473763 63.37728747566598 293.97467681523085 H 0.0 **** 0.06
10750 H 35.2304956423373 64.19211281044227 294.3146767534757 H 0.0 **** 0.06
10751 C 66.24444218045198 200.7775247317678 218.97407611368294 C 0.0 **** -0.24
10752 H 66.06012363904335 201.3358037689531 218.0564097580105 H 0.0 **** 0.06
10753 H 65.52428922921308 199.96347784851918 219.0554379461375 H 0.0 **** 0.06
10754 H 66.14018665472429 201.4436683607766 219.83060095366014 H 0.0 **** 0.06
10755 H 67.2549285037203 200.36849386321734 218.95354583873674 H 0.0 **** 0.06
10756 C 40.901406116235194 51.35723377535231 30.413894991155672 C 0.0 **** -0.24
10757 H 41.79143723406196 50.94054046503686 29.94255897123267 H 0.0 **** 0.06
10758 H 40.06311952027454 51.302097849577535 29.71957376757834 H 0.0 **** 0.06
10759 H 41.08511783979566 52.39721372174486 30.68046966337664 H 0.0 **** 0.06
10760 H 40.665916381776526 50.7873852173482 31.313318451235915 H 0.0 **** 0.06
10761 C 89.37365465228012 282.07718719637194 19.180534980754558 C 0.0 **** -0.24
10762 H 89.28715542314032 282.7191720565718 20.05726565398797 H 0.0 **** 0.06
10763 H 89.82490049474859 282.6387967053578 18.362554969330702 H 0.0 **** 0.06
10764 H 88.38358831288141 281.7329629613124 18.882668120271006 H 0.0 **** 0.06
10765 H 89.99932066000636 281.2170478188421 19.42018816928295 H 0.0 **** 0.06
10766 C 247.3956334312212 285.1342681402609 244.4378492859014 C 0.0 **** -0.24
10767 H 246.40170922501937 285.1708125767532 243.991569633993 H 0.0 **** 0.06
10768 H 248.12222315172608 285.55170293782106 243.73954854448291 H 0.0 **** 0.06
10769 H 247.656236818139 284.0989891252391 244.65817991573766 H 0.0 **** 0.06
10770 H 247.40083950589965 285.7149263510589 245.35940410333737 H 0.0 **** 0.06
10771 C 17.353040654921116 82.663576820994 293.2699732259341 C 0.0 **** -0.24
10772 H 18.188500714986063 82.14429628707671 292.80050164550215 H 0.0 **** 0.06
10773 H 16.781743302088188 83.1958932459143 292.5090626456705 H 0.0 **** 0.06
10774 H 17.734566816736603 83.37588227345145 294.0024335226132 H 0.0 **** 0.06
10775 H 16.709115219216116 81.9394978316472 293.7684398719739 H 0.0 **** 0.06
10776 C 17.199516176282458 122.66627852867776 178.18293521674087 C 0.0 **** -0.24
10777 H 17.25044385495032 123.67461731209119 177.77073911716917 H 0.0 **** 0.06
10778 H 17.910221282403725 122.57370016207906 179.00500264357316 H 0.0 **** 0.06
10779 H 17.44751213209051 121.94322493746188 177.40488967366332 H 0.0 **** 0.06
10780 H 16.192032060225344 122.4742680166878 178.5491306012192 H 0.0 **** 0.06
10781 C 268.9952819807373 113.74575118427737 151.05554685404138 C 0.0 **** -0.24
10782 H 268.10033488902764 114.33241661165385 151.2652698469426 H 0.0 **** 0.06
10783 H 269.88082728416964 114.34821532938406 151.25965668373323 H 0.0 **** 0.06
10784 H 268.99416405116983 113.44299404488416 150.00807407723852 H 0.0 **** 0.06
10785 H 269.0047807333581 112.85946018488144 151.69016200442155 H 0.0 **** 0.06
10786 C 77.55298285515511 66.87079109136982 123.0371410205943 C 0.0 **** -0.24
10787 H 76.69514234928442 67.15803281533158 122.43002966062758 H 0.0 **** 0.06
10788 H 77.68163834667547 65.78937024269615 122.99496210233417 H 0.0 **** 0.06
10789 H 77.38639479974324 67.1775317855394 124.07022907145125 H 0.0 **** 0.06
10790 H 78.44911249798363 67.35904676413199 122.6537959899498 H 0.0 **** 0.06
10791 C 287.83824203806586 230.84839162600346 246.6163425279974 C 0.0 **** -0.24
10792 H 287.8205512032992 229.80697042732245 246.29705070933926 H 0.0 **** 0.06
10793 H 288.866275460923 231.1477606981742 246.8216052677505 H 0.0 **** 0.06
10794 H 287.2394093220332 230.9619129842557 247.51923157048222 H 0.0 **** 0.06
10795 H 287.42808732019614 231.47747822469967 245.82612071726686 H 0.0 **** 0.06
10796 C 91.21943733342994 283.35453039654703 257.1174851647565 C 0.0 **** -0.24
10797 H 92.10747323542051 283.7461240797953 256.6213944736896 H 0.0 **** 0.06
10798 H 90.46900090325121 284.1420846831411 257.1921762873879 H 0.0 **** 0.06
10799 H 91.48432576420723 283.0067710729886 258.1154415351369 H 0.0 **** 0.06
10800 H 90.81782008028543 282.5229384815275 256.5377345091991 H 0.0 **** 0.06
10801 C 96.9316118083807 14.831234619000455 215.8520150982058 C 0.0 **** -0.24
10802 H 97.11704589945577 14.453342921977423 216.85735106800178 H 0.0 **** 0.06
10803 H 97.80182059130846 14.637241829233545 215.22462540795743 H 0.0 **** 0.06
10804 H 96.74649653195547 15.904985078924298 215.8950457674747 H 0.0 **** 0.06
10805 H 96.06039169670817 14.32936851988886 215.4298050909079 H 0.0 **** 0.06
10806 C 59.040129055484215 273.25722605576334 154.8521863012033 C 0.0 **** -0.24
10807 H 59.26335292273649 273.5667340605454 155.87331276300944 H 0.0 **** 0.06
10808 H 59.40892429255911 272.24466789328557 154.69028389874228 H 0.0 **** 0.06
10809 H 59.52648290764208 273.9376160171804 154.15276097754497 H 0.0 **** 0.06
10810 H 57.96238723146459 273.28108811481275 154.69199107251916 H 0.0 **** 0.06
10811 C 271.3463799692144 18.931018916938328 112.98115810137685 C 0.0 **** -0.24
10812 H 272.10047923593754 18.631843054411092 112.25315298503202 H 0.0 **** 0.06
10813 H 271.8040527314365 19.5656629473509 113.73947462079707 H 0.0 **** 0.06
10814 H 270.9260708885769 18.042970026639836 113.45416000333105 H 0.0 **** 0.06
10815 H 270.5524460994867 19.48236447946465 112.47667476732346 H 0.0 **** 0.06
10816 C 313.6688449846476 307.37397877450417 230.77551119313978 C 0.0 **** -0.24
10817 H 312.902362365407 307.11615761608374 231.50651871408664 H 0.0 **** 0.06
10818 H 314.65499752932504 307.2608921877886 231.2282505686976 H 0.0 **** 0.06
10819 H 313.5320495696102 308.40670754338123 230.4557336898909 H 0.0 **** 0.06
10820 H 313.58671956857165 306.71159957687496 229.9138061599752 H 0.0 **** 0.06
10821 C 257.7726437038726 75.18160191817475 224.91814806040276 C 0.0 **** -0.24
10822 H 258.2259593918579 74.82154856699299 223.99427532899125 H 0.0 **** 0.06
10823 H 258.00021307449106 76.24010006218188 225.04529841176307 H 0.0 **** 0.06
10824 H 258.17288742236883 74.61911770760537 225.7621213017331 H 0.0 **** 0.06
10825 H 256.6931695793148 75.04473646943217 224.86933407129027 H 0.0 **** 0.06
10826 C 1.0101965255288405 244.9525337246345 47.518234694601205 C 0.0 **** -0.24
10827 H -0.05354187825615497 244.79407854949318 47.345773371355165 H 0.0 **** 0.06
10828 H 1.2829130899034311 244.56012105268036 48.49794144701704 H 0.0 **** 0.06
10829 H 1.2290388502822225 246.0198030514677 47.47993884261376 H 0.0 **** 0.06
10830 H 1.5834541364826151 244.4364948967494 46.74797889939822 H 0.0 **** 0.06
10831 C 189.15513089422905 140.39494188394835 142.65093393036034 C 0.0 **** -0.24
10832 H 189.87425234281523 140.5180759574471 141.84154484658006 H 0.0 **** 0.06
10833 H 188.16441990200894 140.21524859099557 142.23379079069502 H 0.0 **** 0.06
10834 H 189.1351372752017 141.29826937018254 143.2599282275622 H 0.0 **** 0.06
10835 H 189.44842851544 139.5465072237831 143.27028398394353 H 0.0 **** 0.06
10836 C 104.98929539590327 122.50713585171945 277.1246494774437 C 0.0 **** -0.24
10837 H 106.0503375304454 122.51570581120728 277.3734797270146 H 0.0 **** 0.06
10838 H 104.50385046320679 121.672137618139 277.63055116788195 H 0.0 **** 0.06
10839 H 104.87066729328035 122.39739691861979 276.04662578084077 H 0.0 **** 0.06
10840 H 104.53346679206496 123.44310993580936 277.447127610813 H 0.0 **** 0.06
10841 C 193.58170806739435 96.90444993389411 293.4402899513961 C 0.0 **** -0.24
10842 H 192.82122909372453 97.68466080226514 293.4103219557847 H 0.0 **** 0.06
10843 H 193.88973138538387 96.65790525508748 292.4245292985595 H 0.0 **** 0.06
10844 H 193.17248021521897 96.01624274321969 293.9223728326995 H 0.0 **** 0.06
10845 H 194.44370165571985 97.26065042926541 294.00540198980264 H 0.0 **** 0.06
10846 C 259.4717261150087 64.31935556650734 293.94469792315374 C 0.0 **** -0.24
10847 H 259.2891950100278 64.06819072988276 292.8998678076042 H 0.0 **** 0.06
10848 H 259.68307680532916 65.38612107988598 294.0304742819144 H 0.0 **** 0.06
10849 H 260.324696794778 63.74889054593817 294.3120914847388 H 0.0 **** 0.06
10850 H 258.5886812876089 64.0748355659313 294.53614120677435 H 0.0 **** 0.06
10851 C 192.36956328826358 262.01054090166446 121.76348251748385 C 0.0 **** -0.24
10852 H 193.33855492409572 261.59595983233936 121.48495047635319 H 0.0 **** 0.06
10853 H 192.10102647722607 262.80565130760135 121.06742305405984 H 0.0 **** 0.06
10854 H 192.42544734070117 262.4145793515454 122.77450539338753 H 0.0 **** 0.06
10855 H 191.61443609244913 261.22478289550247 121.72739058506863 H 0.0 **** 0.06
10856 C 106.44625578206859 306.2888454366746 154.58195814441183 C 0.0 **** -0.24
10857 H 107.45989201999808 306.4560055786095 154.21858174028262 H 0.0 **** 0.06
10858 H 106.30310099252495 306.8242226742319 155.52010006638295 H 0.0 **** 0.06
10859 H 106.29013259890641 305.222166717219 154.74450171799845 H 0.0 **** 0.06
10860 H 105.73099949301962 306.65137545827565 153.84303745955992 H 0.0 **** 0.06
10861 C 20.234549238066805 80.650540710077 22.9043354876859 C 0.0 **** -0.24
10862 H 20.256493937791603 79.88317186209389 23.677020949876947 H 0.0 **** 0.06
10863 H 21.158346447544886 80.61008757562013 22.326729556142794 H 0.0 **** 0.06
10864 H 20.139511000994162 81.63238356498402 23.369291073507753 H 0.0 **** 0.06
10865 H 19.384952111938404 80.47728585818149 22.243210058445015 H 0.0 **** 0.06
10866 C 164.3458864904523 63.73251984451164 41.81991252368212 C 0.0 **** -0.24
10867 H 164.57999813125946 63.26290518559975 40.86427233829332 H 0.0 **** 0.06
10868 H 164.53286853807055 64.80418335744534 41.752515355728946 H 0.0 **** 0.06
10869 H 164.975440851347 63.30215352226887 42.598851215868905 H 0.0 **** 0.06
10870 H 163.29764150188885 63.559515012720055 42.06167091130325 H 0.0 **** 0.06
10871 C 68.8735186434487 158.0850891820914 159.63914698328944 C 0.0 **** -0.24
10872 H 68.41996183211805 158.94873575518642 160.12711642175037 H 0.0 **** 0.06
10873 H 69.95305337128937 158.2285127010877 159.57944922829728 H 0.0 **** 0.06
10874 H 68.46405248535504 157.97988562279755 158.63381915997195 H 0.0 **** 0.06
10875 H 68.65651353347081 157.18731269986927 160.21637095364514 H 0.0 **** 0.06
10876 C 159.56007297907684 99.3112919163043 39.40291431788714 C 0.0 **** -0.24
10877 H 158.67350472678254 99.36790140641028 38.771795908264295 H 0.0 **** 0.06
10878 H 159.50386313378704 98.42023293689161 40.02906821546239 H 0.0 **** 0.06
10879 H 159.61292553554483 100.19795282267302 40.034516560871054 H 0.0 **** 0.06
10880 H 160.4495031074453 99.25960241391454 38.775582198164074 H 0.0 **** 0.06
10881 C 147.05939739224806 231.55850077908485 263.33070156295724 C 0.0 **** -0.24
10882 H 146.33688400033563 230.97571237507228 262.7589363779708 H 0.0 **** 0.06
10883 H 146.82241841999735 232.61902284734668 263.2410061727499 H 0.0 **** 0.06
10884 H 148.0617239006968 231.37595768159346 262.9422701772931 H 0.0 **** 0.06
10885 H 147.0167939539703 231.2630802190264 264.3788923796919 H 0.0 **** 0.06
10886 C 277.2556769934696 27.36168465904808 264.6947557527634 C 0.0 **** -0.24
10887 H 278.2867394360138 27.279582128515273 264.349601051407 H 0.0 **** 0.06
10888 H 277.2072680100428 27.114856887048347 265.75526363605456 H 0.0 **** 0.06
10889 H 276.62963684022714 26.669657221941293 264.1312301508136 H 0.0 **** 0.06
10890 H 276.9013231210453 28.380921980459078 264.541537070111 H 0.0 **** 0.06
10891 C 75.8889889966728 209.14798538181694 125.29659814657077 C 0.0 **** -0.24
10892 H 75.46244462278582 209.15240198994204 124.29355939339774 H 0.0 **** 0.06
10893 H 76.70219134103897 208.42375334351706 125.34208716452397 H 0.0 **** 0.06
10894 H 75.11897841482309 208.8766870030372 126.01887457834903 H 0.0 **** 0.06
10895 H 76.27347067861439 210.14124342652798 125.53151440704059 H 0.0 **** 0.06
10896 C 182.81645802747857 135.7695616560418 61.37600678079258 C 0.0 **** -0.24
10897 H 182.91834982126647 135.72644797031694 62.45975657494847 H 0.0 **** 0.06
10898 H 182.3225606704678 136.699829859744 61.0949341551094 H 0.0 **** 0.06
10899 H 182.22213275003242 134.92315551760413 61.0329842455443 H 0.0 **** 0.06
10900 H 183.80398876160632 135.7295431687695 60.91618625009565 H 0.0 **** 0.06
10901 C 160.8618014602621 246.6086273208768 314.00329831305896 C 0.0 **** -0.24
10902 H 161.485894648069 246.8621619814046 313.1469693960285 H 0.0 **** 0.06
10903 H 159.97712803572676 246.07122367307105 313.6621860150418 H 0.0 **** 0.06
10904 H 160.55796862577176 247.52233693301855 314.51468339885247 H 0.0 **** 0.06
10905 H 161.42792920894186 245.97884573193562 314.69110270516006 H 0.0 **** 0.06
10906 C 38.165778424764966 264.2996916906646 28.058719805679658 C 0.0 **** -0.24
10907 H 38.757167961365184 265.1879821453615 28.28389271778954 H 0.0 **** 0.06
10908 H 37.16602305842079 264.4128788308595 28.47988513652504 H 0.0 **** 0.06
10909 H 38.64704094354073 263.42315488404586 28.493807118398536 H 0.0 **** 0.06
10910 H 38.093477034541166 264.1766975269638 26.978656710691695 H 0.0 **** 0.06
10911 C 58.694571543586704 120.51895028791026 9.062143506252099 C 0.0 **** -0.24
10912 H 57.607651723829036 120.5956148972663 9.01676511309806 H 0.0 **** 0.06
10913 H 59.0515802298832 119.92202210674157 8.22195727598438 H 0.0 **** 0.06
10914 H 58.98600616594092 120.04031343426664 9.99726273653657 H 0.0 **** 0.06
10915 H 59.131450916029934 121.51604045859344 9.012173986430255 H 0.0 **** 0.06
10916 C 126.68415953671172 109.22152454373531 83.50714694452884 C 0.0 **** -0.24
10917 H 127.20888842643825 109.68201930433247 82.670157388446 H 0.0 **** 0.06
10918 H 126.84637714114348 108.14327872044444 83.48831217277802 H 0.0 **** 0.06
10919 H 125.61765164895482 109.42991871764323 83.42667247555508 H 0.0 **** 0.06
10920 H 127.06481832142515 109.6299895218526 84.44343034309156 H 0.0 **** 0.06
10921 C 136.952257939755 250.9167105721969 176.01345707201517 C 0.0 **** -0.24
10922 H 136.94631431391394 252.00552613206807 176.0655022500847 H 0.0 **** 0.06
10923 H 136.0504303525742 250.52544597898464 176.48501022270494 H 0.0 **** 0.06
10924 H 137.83021064517553 250.5332395563116 176.53234566548366 H 0.0 **** 0.06
10925 H 136.98217015690258 250.60356483101026 174.9689407426119 H 0.0 **** 0.06
10926 C 216.70850548586623 45.392403800698276 249.90607118169123 C 0.0 **** -0.24
10927 H 216.38058304736404 46.13504136359734 250.63375495678378 H 0.0 **** 0.06
10928 H 217.39129701587038 45.85694563720239 249.19490878317004 H 0.0 **** 0.06
10929 H 215.84170309464238 44.99893507368972 249.3733767724905 H 0.0 **** 0.06
10930 H 217.2185318122559 44.57856926115406 250.42165419088798 H 0.0 **** 0.06
10931 C 33.57411802826971 289.8907801380983 183.70465532822914 C 0.0 **** -0.24
10932 H 34.60142317619986 290.09373634591617 183.40564320302764 H 0.0 **** 0.06
10933 H 33.45323138325779 290.11115235108997 184.7656331131579 H 0.0 **** 0.06
10934 H 33.34308061500448 288.84120254252605 183.52340706392113 H 0.0 **** 0.06
10935 H 32.89631593550311 290.5170707011353 183.12356771942262 H 0.0 **** 0.06
10936 C 26.32003399369924 278.8204062955964 210.69862009803398 C 0.0 **** -0.24
10937 H 25.276425182381814 278.5330358860618 210.82439467410072 H 0.0 **** 0.06
10938 H 26.929312950286658 278.30898019839685 211.44448929205453 H 0.0 **** 0.06
10939 H 26.417045214330358 279.8988087248066 210.8267933276445 H 0.0 **** 0.06
10940 H 26.655330172486515 278.5412189538666 209.70012009935706 H 0.0 **** 0.06
10941 C 28.949543042477103 15.102814915943725 121.29645644778489 C 0.0 **** -0.24
10942 H 29.274093944688673 15.943420825282544 120.68222296441175 H 0.0 **** 0.06
10943 H 29.018313311821743 14.181824113896369 120.71611348886768 H 0.0 **** 0.06
10944 H 27.917625758898254 15.259365658268223 121.61043245666048 H 0.0 **** 0.06
10945 H 29.589480068366896 15.027775262869454 122.17566632236773 H 0.0 **** 0.06
10946 C 172.00174126695606 126.81048493338591 285.05674833477843 C 0.0 **** -0.24
10947 H 171.63596380218036 126.23487220076316 284.20667058734415 H 0.0 **** 0.06
10948 H 172.59391457782158 126.16348316412333 285.7045321212549 H 0.0 **** 0.06
10949 H 171.1552030149448 127.20891957760787 285.6163787254667 H 0.0 **** 0.06
10950 H 172.62030738425034 127.63296293706077 284.6986251177944 H 0.0 **** 0.06
10951 C 176.61080703954298 165.2745833712267 42.313520503179745 C 0.0 **** -0.24
10952 H 176.06240499112687 164.36671663306805 42.56558305648835 H 0.0 **** 0.06
10953 H 177.6104446217679 165.00999999432815 41.966983785774914 H 0.0 **** 0.06
10954 H 176.687908113576 165.90885674066533 43.19722694313435 H 0.0 **** 0.06
10955 H 176.0823101284148 165.81072741610217 41.52648878885688 H 0.0 **** 0.06
10956 C 161.69291325185958 54.95091150363825 37.19764519164352 C 0.0 **** -0.24
10957 H 162.65333921844183 54.436919921693345 37.17524068618661 H 0.0 **** 0.06
10958 H 161.79965793524264 55.89857842362605 37.725634142179416 H 0.0 **** 0.06
10959 H 160.9590203432797 54.32934587257415 37.71024221966621 H 0.0 **** 0.06
10960 H 161.35839173344863 55.139273970970294 36.17677483203303 H 0.0 **** 0.06
10961 C 21.34331989716867 144.8347913895484 277.9197202288609 C 0.0 **** -0.24
10962 H 21.27079884531784 143.90021422483375 278.47614234475884 H 0.0 **** 0.06
10963 H 20.545752717804817 145.50761142218164 278.2342836508363 H 0.0 **** 0.06
10964 H 21.247235154470815 144.63084058422572 276.8530557345532 H 0.0 **** 0.06
10965 H 22.309949368449793 145.29902872594698 278.1146061176162 H 0.0 **** 0.06
10966 C 14.852887730211819 297.9017839677779 41.620166886878906 C 0.0 **** -0.24
10967 H 15.327809955342673 298.5750195346302 40.906660684677945 H 0.0 **** 0.06
10968 H 13.771414788268316 298.02691023658303 41.572763934747 H 0.0 **** 0.06
10969 H 15.202733303862658 298.1322219977452 42.6256974592892 H 0.0 **** 0.06
10970 H 15.110619609471655 296.8718555395682 41.372600607342974 H 0.0 **** 0.06
10971 C 135.08429399511752 59.05699431849757 70.18385385902235 C 0.0 **** -0.24
10972 H 134.81945365563618 59.17788502628116 69.13323528726025 H 0.0 **** 0.06
10973 H 135.00763575343413 60.01917373022198 70.6897991540132 H 0.0 **** 0.06
10974 H 136.10575979460128 58.68528277080398 70.26058385835046 H 0.0 **** 0.06
10975 H 134.4023144956039 58.345443094923354 70.65041379387918 H 0.0 **** 0.06
10976 C 247.86564185997662 147.39031556871637 64.86655474655987 C 0.0 **** -0.24
10977 H 248.74319008502542 147.74399238518214 65.40667710934588 H 0.0 **** 0.06
10978 H 247.3200992568485 148.24353489117135 64.46293189321264 H 0.0 **** 0.06
10979 H 247.21979629163974 146.8348979868119 65.54738597834043 H 0.0 **** 0.06
10980 H 248.17768837226743 146.73953376540894 64.05036336955894 H 0.0 **** 0.06
10981 C 101.06522012027753 198.6032886242976 77.15634229408599 C 0.0 **** -0.24
10982 H 100.75724509553058 198.08371728395093 78.063947581852 H 0.0 **** 0.06
10983 H 100.35634830131895 198.38667761038528 76.35652933628694 H 0.0 **** 0.06
10984 H 102.05843939655995 198.26563665466017 76.86344477213214 H 0.0 **** 0.06
10985 H 101.08563358996065 199.67705136075017 77.34273764303668 H 0.0 **** 0.06
10986 C 123.34952757671505 211.62876041362412 199.77695518959854 C 0.0 **** -0.24
10987 H 122.34925451820857 211.1970333459539 199.74641183762412 H 0.0 **** 0.06
10988 H 123.27732242382669 212.7153127048445 199.7252455580329 H 0.0 **** 0.06
10989 H 123.92999512543804 211.26289295563384 198.9302446273141 H 0.0 **** 0.06
10990 H 123.84043780308573 211.34058266005556 200.7063437415955 H 0.0 **** 0.06
10991 C 293.0274802667633 88.35972440743097 124.3488091236286 C 0.0 **** -0.24
10992 H 292.32524180480203 87.85957556463563 125.01562815963572 H 0.0 **** 0.06
10993 H 293.504970149573 87.6220938949642 123.70368046230462 H 0.0 **** 0.06
10994 H 293.78693428327836 88.87170630353577 124.93977484594583 H 0.0 **** 0.06
10995 H 292.4932890260195 89.08665456774744 123.73682578135794 H 0.0 **** 0.06
10996 C 61.7764552125783 169.55073598740915 143.2513114714197 C 0.0 **** -0.24
10997 H 60.92709495450785 169.70644610134264 142.58633338061256 H 0.0 **** 0.06
10998 H 62.615734202491524 169.15194322262113 142.6811189953433 H 0.0 **** 0.06
10999 H 61.49883818422148 168.8436585132053 144.03303877751395 H 0.0 **** 0.06
11000 H 62.06157649415593 170.49974089491383 143.7037425529031 H 0.0 **** 0.06
11001 C 193.10668407814939 299.7113992247329 199.7005306344675 C 0.0 **** -0.24
11002 H 193.34151636990634 300.7246782210391 199.37661580850977 H 0.0 **** 0.06
11003 H 192.80785645855372 299.7258385456156 200.74938187103203 H 0.0 **** 0.06
11004 H 193.98640039657937 299.0793104991766 199.5817813628334 H 0.0 **** 0.06
11005 H 192.29060015263593 299.315742920056 199.0952749294209 H 0.0 **** 0.06
11006 C 143.54872332312908 207.76266232179228 251.33023706539868 C 0.0 **** -0.24
11007 H 144.11327037714221 208.69522279288714 251.30340525591663 H 0.0 **** 0.06
11008 H 143.13453751323073 207.61804601678358 252.32841620383067 H 0.0 **** 0.06
11009 H 144.2107076825029 206.93200005972682 251.08665697221002 H 0.0 **** 0.06
11010 H 142.73863076861355 207.80817152016039 250.60283531057877 H 0.0 **** 0.06
11011 C 138.7394701727833 28.206019647721348 250.47715832906837 C 0.0 **** -0.24
11012 H 139.30462496243814 28.909126689040363 251.09050318348957 H 0.0 **** 0.06
11013 H 139.21079235622707 28.11740458205577 249.49862416161267 H 0.0 **** 0.06
11014 H 137.71857872292514 28.568356539139927 250.35868060056222 H 0.0 **** 0.06
11015 H 138.724701279212 27.231278995507864 250.9642855080686 H 0.0 **** 0.06
11016 C 4.073204723937295 207.98325839031247 136.74449270086478 C 0.0 **** -0.24
11017 H 3.0731450589669294 207.81943842063168 136.34209608374073 H 0.0 **** 0.06
11018 H 4.6092848555383625 208.6874750688873 136.10707657397825 H 0.0 **** 0.06
11019 H 4.611755926226181 207.0362385580804 136.77451583171248 H 0.0 **** 0.06
11020 H 3.9960685913549696 208.39074953545907 137.7521212683786 H 0.0 **** 0.06
11021 C 59.29999970498281 40.61907437464902 143.45665621568708 C 0.0 **** -0.24
11022 H 59.94602065961044 41.18884258690602 142.78856231402196 H 0.0 **** 0.06
11023 H 58.77402107620219 39.85322701191305 142.8868082990489 H 0.0 **** 0.06
11024 H 58.57590853393097 41.29015670457011 143.91972298934115 H 0.0 **** 0.06
11025 H 59.90392960370258 40.147052091069526 144.23121479214424 H 0.0 **** 0.06
11026 C 207.64737021839574 263.89339449505667 268.6627773081655 C 0.0 **** -0.24
11027 H 206.79743528067877 263.462288697972 268.13378038643015 H 0.0 **** 0.06
11028 H 207.842285473412 264.8951840095015 268.280597821604 H 0.0 **** 0.06
11029 H 208.52627704163615 263.2679201824826 268.50972494493493 H 0.0 **** 0.06
11030 H 207.42058852632488 263.94824366084885 269.72779232485055 H 0.0 **** 0.06
11031 C 247.97301503328316 25.551424658041697 23.318898163987228 C 0.0 **** -0.24
11032 H 247.7889956441241 26.146315810360193 22.42416762793539 H 0.0 **** 0.06
11033 H 247.36508479433832 24.646903145634894 23.284084202291297 H 0.0 **** 0.06
11034 H 247.71110241650422 26.13336482901684 24.202279036726054 H 0.0 **** 0.06
11035 H 249.0273400200715 25.27910979145713 23.36265640516274 H 0.0 **** 0.06
11036 C 68.29218785940648 110.33710807750978 290.72608799785183 C 0.0 **** -0.24
11037 H 68.00107077808892 109.28692468784087 290.6970527665249 H 0.0 **** 0.06
11038 H 68.9080035951036 110.56725369365105 289.856599455404 H 0.0 **** 0.06
11039 H 68.86099542531923 110.53142561022287 291.6355741170537 H 0.0 **** 0.06
11040 H 67.39969840716932 110.96147722450633 290.7155008080274 H 0.0 **** 0.06
11041 C 146.81837738586438 274.73637385494555 56.60806229908073 C 0.0 **** -0.24
11042 H 147.04333337530642 273.6710672712602 56.66951179640543 H 0.0 **** 0.06
11043 H 146.8384178072632 275.051900478372 55.56505286474092 H 0.0 **** 0.06
11044 H 147.56399407375687 275.29764207164783 57.172867665568134 H 0.0 **** 0.06
11045 H 145.82930614597183 274.92328618128266 57.02706733198363 H 0.0 **** 0.06
11046 C 303.8191974467893 145.65628111087577 263.3611869411149 C 0.0 **** -0.24
11047 H 304.34293016777946 146.45982896028875 262.8429444856257 H 0.0 **** 0.06
11048 H 303.8776728956606 144.74313185447105 262.7700199586047 H 0.0 **** 0.06
11049 H 302.77400490911583 145.93441371595358 263.49902803150815 H 0.0 **** 0.06
11050 H 304.2812203997873 145.4908566892276 264.3346056088993 H 0.0 **** 0.06
11051 C 142.25266757312883 195.81449675306027 40.667424423471516 C 0.0 **** -0.24
11052 H 142.51313670623202 196.81215999492548 41.020925818997455 H 0.0 **** 0.06
11053 H 142.84364068246347 195.0728771009604 41.206940350593186 H 0.0 **** 0.06
11054 H 142.46427674639824 195.7415778805937 39.60050655074201 H 0.0 **** 0.06
11055 H 141.19326981928913 195.63217788021893 40.84136282469828 H 0.0 **** 0.06
11056 C 160.16204201742136 184.20071816987672 66.94939126620116 C 0.0 **** -0.24
11057 H 160.2932184189857 185.25310160017062 67.1998013582479 H 0.0 **** 0.06
11058 H 161.01286873931855 183.8571194935592 66.36037497398178 H 0.0 **** 0.06
11059 H 159.2462005277008 184.07555748748905 66.37252168370395 H 0.0 **** 0.06
11060 H 160.09554569120525 183.615072710084 67.86727578623854 H 0.0 **** 0.06
11061 C 103.70780839059049 44.8686600058511 148.2668480945068 C 0.0 **** -0.24
11062 H 103.32607097269334 44.83944033617402 147.24692010739483 H 0.0 **** 0.06
11063 H 104.75643960594434 44.5665901004339 148.27139880212994 H 0.0 **** 0.06
11064 H 103.13091896621566 44.18630173021893 148.89105328946232 H 0.0 **** 0.06
11065 H 103.61993212265833 45.88158289757416 148.65899261409334 H 0.0 **** 0.06
11066 C 28.687287993851896 221.47888703051055 128.53520803823218 C 0.0 **** -0.24
11067 H 28.191682472508802 222.04483341361146 129.3245363681869 H 0.0 **** 0.06
11068 H 28.04464511032984 221.44413317831152 127.65548498863498 H 0.0 **** 0.06
11069 H 28.88155565911518 220.46474148636977 128.88362623139952 H 0.0 **** 0.06
11070 H 29.629781948129107 221.9621579906177 128.27882419933198 H 0.0 **** 0.06
11071 C 232.8805282048816 98.11470319982945 23.59311514291747 C 0.0 **** -0.24
11072 H 233.09638110151857 97.29805947268852 22.904499213661552 H 0.0 **** 0.06
11073 H 232.3126742473085 97.73428795954564 24.441440830399245 H 0.0 **** 0.06
11074 H 232.29720380596237 98.87834956988456 23.07729422114707 H 0.0 **** 0.06
11075 H 233.81568682207964 98.54873633240086 23.94647183090126 H 0.0 **** 0.06
11076 C 180.55534872379314 252.85480796414117 309.6715732270972 C 0.0 **** -0.24
11077 H 181.25159623569095 253.60892959597913 309.30558509425504 H 0.0 **** 0.06
11078 H 180.72078238168103 252.69536511761262 310.7375948208643 H 0.0 **** 0.06
11079 H 180.71812154056323 251.91997335341543 309.1353152573525 H 0.0 **** 0.06
11080 H 179.5330106559063 253.19485186137558 309.509026714064 H 0.0 **** 0.06
11081 C 84.54949604142993 269.05068171480684 72.3766750999448 C 0.0 **** -0.24
11082 H 85.47938915410887 269.50877008107284 72.04115879156367 H 0.0 **** 0.06
11083 H 84.06392257875652 269.7021843778738 73.10410966617113 H 0.0 **** 0.06
11084 H 84.76467255564742 268.0871493310248 72.83852438555036 H 0.0 **** 0.06
11085 H 83.88805980659117 268.9036825001831 71.52231470040721 H 0.0 **** 0.06
11086 C 228.02241433011923 67.77855022318195 83.27275974221243 C 0.0 **** -0.24
11087 H 228.87301506773179 67.09734657836941 83.31614563210903 H 0.0 **** 0.06
11088 H 228.38310475406817 68.80338025701121 83.18800027475001 H 0.0 **** 0.06
11089 H 227.42838541866615 67.67553318216162 84.18059094319528 H 0.0 **** 0.06
11090 H 227.40668673563255 67.53637499253489 82.40586295349436 H 0.0 **** 0.06
11091 C 89.41772041461013 1.3141819215161377 97.01959403320265 C 0.0 **** -0.24
11092 H 88.65259561276517 1.398002395561278 97.79045362431313 H 0.0 **** 0.06
11093 H 90.35989296756318 1.0090007299830717 97.4748705104478 H 0.0 **** 0.06
11094 H 89.54583280687316 2.278765354070586 96.52875152792129 H 0.0 **** 0.06
11095 H 89.11202563418124 0.570150176057254 96.28405626213615 H 0.0 **** 0.06
11096 C 268.2649524641115 77.58101569897255 172.2765986204962 C 0.0 **** -0.24
11097 H 268.26642980397884 76.80269510404187 171.51280858149426 H 0.0 **** 0.06
11098 H 268.9054874738525 77.27678196827074 173.10523792355417 H 0.0 **** 0.06
11099 H 267.2489877128979 77.73187639810646 172.63887339889158 H 0.0 **** 0.06
11100 H 268.64086288550857 78.51068101759023 171.84924618877426 H 0.0 **** 0.06
11101 C 298.26308853106707 147.17540795044772 192.38455607094403 C 0.0 **** -0.24
11102 H 297.77139206607274 147.97779267787178 192.93448759853624 H 0.0 **** 0.06
11103 H 297.5145559109711 146.59598264636531 191.84379310513572 H 0.0 **** 0.06
11104 H 298.7903924808179 146.52706566469453 193.08370067040875 H 0.0 **** 0.06
11105 H 298.97373496852964 147.602333272711 191.67689742448943 H 0.0 **** 0.06
11106 C 257.5443244976452 21.04275078246164 308.9536242119991 C 0.0 **** -0.24
11107 H 256.82298817532313 20.428838219927982 308.41389684796656 H 0.0 **** 0.06
11108 H 258.5520435334459 20.678285634836357 308.7567566259645 H 0.0 **** 0.06
11109 H 257.3392683841551 20.986786433798727 310.02253502696686 H 0.0 **** 0.06
11110 H 257.4589658938366 22.077935429817586 308.62149018852864 H 0.0 **** 0.06
11111 C 83.83667388444223 75.0635001743897 183.56359158023258 C 0.0 **** -0.24
11112 H 84.91289459272312 74.93698432156665 183.68806681237982 H 0.0 **** 0.06
11113 H 83.45337468776344 74.28324935465716 182.90537752848792 H 0.0 **** 0.06
11114 H 83.63425921670972 76.0414126900433 183.1270028000065 H 0.0 **** 0.06
11115 H 83.34837361131932 74.9923522919683 184.5359516863677 H 0.0 **** 0.06
11116 C 93.01317267425691 250.8228278222569 57.8892868817083 C 0.0 **** -0.24
11117 H 93.70334392158534 250.8293453798689 57.04573930150633 H 0.0 **** 0.06
11118 H 93.03566800733475 251.79377646391816 58.38386553478006 H 0.0 **** 0.06
11119 H 93.31013355189631 250.04769051245404 58.594997681761186 H 0.0 **** 0.06
11120 H 92.00440641908557 250.62103300766228 57.530314959312136 H 0.0 **** 0.06
11121 C 59.48558864722679 292.75014235408196 245.0166296787167 C 0.0 **** -0.24
11122 H 58.515699929122036 293.1206438471571 245.349312516348 H 0.0 **** 0.06
11123 H 60.25484177218436 293.4864211714473 245.24705857797568 H 0.0 **** 0.06
11124 H 59.45810364743943 292.5770920586134 243.9406986767523 H 0.0 **** 0.06
11125 H 59.71095228653229 291.81492189014455 245.52987062328825 H 0.0 **** 0.06
11126 C 132.83501942866548 20.452923394789877 172.7583969254091 C 0.0 **** -0.24
11127 H 132.49970580320286 19.872022600448076 173.6171718588925 H 0.0 **** 0.06
11128 H 133.63237875188716 19.91524080804203 172.24517680078662 H 0.0 **** 0.06
11129 H 133.20714654210494 21.4205457128337 173.0966672550906 H 0.0 **** 0.06
11130 H 132.00024852765256 20.60499584556345 172.07393373130606 H 0.0 **** 0.06
11131 C 201.7662196362 308.31027758917145 210.72874457568335 C 0.0 **** -0.24
11132 H 202.5649388386933 308.9654739366657 211.07772557213212 H 0.0 **** 0.06
11133 H 202.07058604155122 307.8341421049805 209.79610399823565 H 0.0 **** 0.06
11134 H 200.8636923313768 308.8971960279703 210.55997977626788 H 0.0 **** 0.06
11135 H 201.56902559153048 307.5463038540072 211.4795381440139 H 0.0 **** 0.06
11136 C 137.71890810853117 129.86064947092515 110.074641167035 C 0.0 **** -0.24
11137 H 138.27455645820032 130.73558633758137 109.73758517798566 H 0.0 **** 0.06
11138 H 136.95998308104214 129.60444757809066 109.33506037707411 H 0.0 **** 0.06
11139 H 137.23725265519778 130.08235431213708 111.02730917866631 H 0.0 **** 0.06
11140 H 138.40333297692007 129.0215760239954 110.19997951124779 H 0.0 **** 0.06
11141 C 113.60691291839157 127.96132036199455 296.17376923167086 C 0.0 **** -0.24
11142 H 112.9024211571843 128.53610654390522 296.7745808089855 H 0.0 **** 0.06
11143 H 113.85218204485022 127.03356713763958 296.6911910736188 H 0.0 **** 0.06
11144 H 114.51458052008192 128.5450932947454 296.0217164899015 H 0.0 **** 0.06
11145 H 113.1573837630961 127.73139225631414 295.20782101658125 H 0.0 **** 0.06
11146 C 204.6444403292864 135.68493299025437 299.4703376670018 C 0.0 **** -0.24
11147 H 205.149721701771 135.3752340866827 300.38474822598874 H 0.0 **** 0.06
11148 H 205.20989592514525 136.48889131289224 298.99793176133323 H 0.0 **** 0.06
11149 H 203.64154715476212 136.03881307329888 299.71126197382165 H 0.0 **** 0.06
11150 H 204.57703197549938 134.83769009708035 298.78748926054817 H 0.0 **** 0.06
11151 C 124.19861311394223 129.1260146427085 250.48548188311338 C 0.0 **** -0.24
11152 H 124.67424029966415 128.70366045116688 251.37092983153934 H 0.0 **** 0.06
11153 H 123.69401094111458 130.05473772644297 250.75278028021043 H 0.0 **** 0.06
11154 H 123.47151477051594 128.41693746496568 250.09022006723097 H 0.0 **** 0.06
11155 H 124.95705950970418 129.32987616973742 249.72901648620638 H 0.0 **** 0.06
11156 C 199.3293810089952 39.546481422777106 223.16257416720947 C 0.0 **** -0.24
11157 H 199.7102667892138 38.81046372881596 223.87202348576878 H 0.0 **** 0.06
11158 H 198.27020404135965 39.36023674075122 222.98221778680772 H 0.0 **** 0.06
11159 H 199.87747802356415 39.46417458631771 222.2250041224832 H 0.0 **** 0.06
11160 H 199.45792526832025 40.54713366555467 223.57386823154422 H 0.0 **** 0.06
11161 C 224.8102207705537 312.95100654159626 259.6737793181731 C 0.0 **** -0.24
11162 H 224.42101078236493 313.4684650086089 258.79759630947154 H 0.0 **** 0.06
11163 H 225.46464893439406 312.13939831008565 259.355185205568 H 0.0 **** 0.06
11164 H 223.98155430513884 312.54307591485355 260.25291733676374 H 0.0 **** 0.06
11165 H 225.37338899765277 313.65226436319824 260.28892349806995 H 0.0 **** 0.06
11166 C 157.18640174636488 138.98178004132822 257.30802769780684 C 0.0 **** -0.24
11167 H 156.87114207043027 138.15801551869043 257.9474920771593 H 0.0 **** 0.06
11168 H 158.24380234865595 139.18756442502877 257.4762808005047 H 0.0 **** 0.06
11169 H 156.60122188888073 139.87013728846992 257.54512110671624 H 0.0 **** 0.06
11170 H 157.03041773444323 138.71138429986198 256.2634289789943 H 0.0 **** 0.06
11171 C 54.20661055738566 7.04763786623063 165.27518606912662 C 0.0 **** -0.24
11172 H 55.06090335145308 7.547556871615043 164.819201247014 H 0.0 **** 0.06
11173 H 53.96145833179787 7.536983430635459 166.21897877133324 H 0.0 **** 0.06
11174 H 54.455071369350776 6.002597621534548 165.46123300786428 H 0.0 **** 0.06
11175 H 53.350670548297444 7.103956182888837 164.60304747060775 H 0.0 **** 0.06
11176 C 312.5360952923477 73.46436195003469 247.9214435833137 C 0.0 **** -0.24
11177 H 312.1637958257734 72.88215575129772 248.76416975339072 H 0.0 **** 0.06
11178 H 312.13445396771476 74.47632533736422 247.97330589015618 H 0.0 **** 0.06
11179 H 312.2206288372249 72.99532940479574 246.9894297757974 H 0.0 **** 0.06
11180 H 313.6247691190987 73.50134936407059 247.95934582202554 H 0.0 **** 0.06
11181 C 92.75450776467156 107.44555229758737 115.10958636994431 C 0.0 **** -0.24
11182 H 93.08580514343305 108.30261491378442 114.52364092313977 H 0.0 **** 0.06
11183 H 93.23968541380944 106.54220417039329 114.73718984891721 H 0.0 **** 0.06
11184 H 91.6739936340094 107.34130221120813 115.02081433284059 H 0.0 **** 0.06
11185 H 93.02095262505028 107.59592223288848 116.1562703593126 H 0.0 **** 0.06
11186 C 122.23477863162836 285.1433435145424 5.428854267546427 C 0.0 **** -0.24
11187 H 123.12649242215295 285.0934465960605 4.803454262546481 H 0.0 **** 0.06
11188 H 121.41893374573868 284.609638952597 4.940748832917038 H 0.0 **** 0.06
11189 H 121.95209638328254 286.1848340231043 5.576460532039903 H 0.0 **** 0.06
11190 H 122.44408619920873 284.68266586473766 6.394803437802381 H 0.0 **** 0.06
11191 C 76.00636165171139 77.3231717622694 165.5024562718761 C 0.0 **** -0.24
11192 H 75.54842952569757 76.69088069122688 164.74159260422022 H 0.0 **** 0.06
11193 H 75.87185714995397 76.86620361815972 166.4828429323669 H 0.0 **** 0.06
11194 H 75.53414343289344 78.30516566383935 165.49036172385286 H 0.0 **** 0.06
11195 H 77.07151048598311 77.4294480239844 165.29308417712474 H 0.0 **** 0.06
11196 C 181.8618020769423 20.67595958251141 242.8528694249034 C 0.0 **** -0.24
11197 H 182.02896306114548 19.638391025836 242.5636082180775 H 0.0 **** 0.06
11198 H 180.82139491817406 20.807778875151712 243.15082071328138 H 0.0 **** 0.06
11199 H 182.08394939119904 21.328738055644408 242.00872833156768 H 0.0 **** 0.06
11200 H 182.51481278994464 20.929141526833263 243.68886838880246 H 0.0 **** 0.06
11201 C 1.0775576984862738 17.607629983872954 200.60378586047773 C 0.0 **** -0.24
11202 H 1.0607229683131578 17.815340810300796 201.67290519287945 H 0.0 **** 0.06
11203 H 1.6859249310021767 18.35655977689163 200.09642816920484 H 0.0 **** 0.06
11204 H 0.06022441923214217 17.638813423916005 200.2114251208983 H 0.0 **** 0.06
11205 H 1.5012397091799414 16.618150174514767 200.43350782831595 H 0.0 **** 0.06
11206 C 259.70654430394825 301.88277502665153 165.4786340012269 C 0.0 **** -0.24
11207 H 259.8461123174799 300.88411004019156 165.89244478422393 H 0.0 **** 0.06
11208 H 260.19783829135565 302.61459503299693 166.12031932039707 H 0.0 **** 0.06
11209 H 258.64139350451086 302.1063173085315 165.42212762242366 H 0.0 **** 0.06
11210 H 260.139967290069 301.9264238022061 164.47928288622228 H 0.0 **** 0.06
11211 C 223.59593067370287 313.515001171062 173.50504168266065 C 0.0 **** -0.24
11212 H 224.0112889266166 312.7208434690548 174.12529438536296 H 0.0 **** 0.06
11213 H 223.78842827866234 314.4805554327221 173.9743102586325 H 0.0 **** 0.06
11214 H 222.52061510708097 313.36955221183337 173.401217875211 H 0.0 **** 0.06
11215 H 224.06369282364682 313.4889772155881 172.52104794637415 H 0.0 **** 0.06
11216 C 179.49618669877873 25.76583790340925 65.4040487830926 C 0.0 **** -0.24
11217 H 180.45360342220596 25.27672677964955 65.22799518127178 H 0.0 **** 0.06
11218 H 179.39590008807244 25.996031092916212 66.46467833228192 H 0.0 **** 0.06
11219 H 178.68730691778813 25.10205992418676 65.09761339472715 H 0.0 **** 0.06
11220 H 179.4479363670485 26.688533816884444 64.8259082240896 H 0.0 **** 0.06
11221 C 113.91897420299958 74.76043630419844 55.8452577554076 C 0.0 **** -0.24
11222 H 113.50928756961792 73.96273424621126 55.22548147325671 H 0.0 **** 0.06
11223 H 114.28119931297985 75.56589512165019 55.20609782643521 H 0.0 **** 0.06
11224 H 114.74436302810969 74.36882776148872 56.44080321293927 H 0.0 **** 0.06
11225 H 113.1418534007212 75.14194441848505 56.50644468867671 H 0.0 **** 0.06
11226 C 125.49509673319477 116.35815183646031 135.971671007724 C 0.0 **** -0.24
11227 H 126.5566933401702 116.14078287545166 135.8529961166528 H 0.0 **** 0.06
11228 H 124.98541646720514 116.2057100896827 135.02020640453634 H 0.0 **** 0.06
11229 H 125.36956565890526 117.39283811803179 136.28985742429114 H 0.0 **** 0.06
11230 H 125.06987011026257 115.69187563450348 136.7223218535364 H 0.0 **** 0.06
11231 C 102.09449989105735 255.422803834261 210.74741023300157 C 0.0 **** -0.24
11232 H 101.52441764969805 255.11620315147653 211.62431536396184 H 0.0 **** 0.06
11233 H 102.57485665496333 254.55083384702874 210.30383828906 H 0.0 **** 0.06
11234 H 102.85395847295845 256.14625364877577 211.04416329317644 H 0.0 **** 0.06
11235 H 101.42302883347168 255.87886619012443 210.02050095905327 H 0.0 **** 0.06
11236 C 204.53243061719235 269.37553254671275 195.30511184891793 C 0.0 **** -0.24
11237 H 203.45535691125286 269.32924186737466 195.46933657259035 H 0.0 **** 0.06
11238 H 204.73338623819757 269.85751741989066 194.34761679587558 H 0.0 **** 0.06
11239 H 204.9420300544407 268.3653817239397 195.29616942804063 H 0.0 **** 0.06
11240 H 204.99723292541688 269.9494723652563 196.10598777143178 H 0.0 **** 0.06
11241 C 137.73319182638065 215.6138429009476 79.61358611011087 C 0.0 **** -0.24
11242 H 136.71994181695246 215.9755181676208 79.78636564120958 H 0.0 **** 0.06
11243 H 137.7441586993077 214.52438121552618 79.66414617732482 H 0.0 **** 0.06
11244 H 138.39824964558906 216.01974572741747 80.37676128579918 H 0.0 **** 0.06
11245 H 138.07109254448062 215.93558508751647 78.6291982730364 H 0.0 **** 0.06
11246 C 279.2702336973199 307.6672852450927 250.69616537076035 C 0.0 **** -0.24
11247 H 280.0222768770227 307.116634170224 251.26074822297437 H 0.0 **** 0.06
11248 H 279.4881148989323 307.59066060011196 249.63091995506647 H 0.0 **** 0.06
11249 H 279.28479248896423 308.7153818795035 250.99663307368803 H 0.0 **** 0.06
11250 H 278.2850254598181 307.2464593040775 250.89757442452225 H 0.0 **** 0.06
11251 C 97.1694390049139 27.849767595547036 93.54774825295146 C 0.0 **** -0.24
11252 H 96.12037454959216 27.830480508871688 93.24819168359247 H 0.0 **** 0.06
11253 H 97.51327526475492 26.830814002032724 93.72759417011278 H 0.0 **** 0.06
11254 H 97.2753797034544 28.43742415325923 94.45979961655854 H 0.0 **** 0.06
11255 H 97.76526602416843 28.299909965688727 92.7540547621434 H 0.0 **** 0.06
11256 C 165.63187786277933 123.59590335729942 56.29185088006716 C 0.0 **** -0.24
11257 H 166.58714524161326 123.07995675933859 56.195753573448314 H 0.0 **** 0.06
11258 H 164.84671024511715 122.99208635789421 55.837583128215044 H 0.0 **** 0.06
11259 H 165.68794752282116 124.56024931883778 55.787104994887216 H 0.0 **** 0.06
11260 H 165.40717369852115 123.75020284367088 57.34773821399381 H 0.0 **** 0.06
11261 C 217.9677636425169 169.85042743305547 235.69484796875685 C 0.0 **** -0.24
11262 H 218.28508752120615 169.5582460583356 234.6930301422882 H 0.0 **** 0.06
11263 H 216.88012540355078 169.91400536130504 235.72702339125175 H 0.0 **** 0.06
11264 H 218.3966590817643 170.82101296239978 235.9420700913024 H 0.0 **** 0.06
11265 H 218.3116494156619 169.10750746365392 236.41461587906792 H 0.0 **** 0.06
11266 C 234.28834645101009 178.127880832563 212.67032180310824 C 0.0 **** -0.24
11267 H 234.32923716858852 178.43158516754085 211.6240374352614 H 0.0 **** 0.06
11268 H 234.9717162855927 178.74615214696632 213.25384953026986 H 0.0 **** 0.06
11269 H 234.5807250820141 177.0818932708341 212.75627587021853 H 0.0 **** 0.06
11270 H 233.27318789268858 178.25316496825116 213.04564477374237 H 0.0 **** 0.06
11271 C 135.43406274130845 72.25243007967211 241.50378021527075 C 0.0 **** -0.24
11272 H 134.46961196781723 72.0944300082661 241.0206321686478 H 0.0 **** 0.06
11273 H 136.10795711205176 71.435536275906 241.2447314892948 H 0.0 **** 0.06
11274 H 135.2974600351371 72.28170402177355 242.5848713713258 H 0.0 **** 0.06
11275 H 135.85936144497194 73.19646600697388 241.16471307468515 H 0.0 **** 0.06
11276 C 184.95877682158073 107.98637914044744 195.80178945254664 C 0.0 **** -0.24
11277 H 185.79382214609308 107.63965579840016 195.19389754168338 H 0.0 **** 0.06
11278 H 185.01939753047515 107.5362660574578 196.79276255663422 H 0.0 **** 0.06
11279 H 184.01997535539238 107.69629847188398 195.32837592341798 H 0.0 **** 0.06
11280 H 185.0005718455958 109.0715518425464 195.89172125737417 H 0.0 **** 0.06
11281 C 114.33435472410298 145.74089101849958 238.73979641194552 C 0.0 **** -0.24
11282 H 114.81406098663012 145.48397517739835 237.7957172314188 H 0.0 **** 0.06
11283 H 114.98982134773186 146.3947496180497 239.31425945067792 H 0.0 **** 0.06
11284 H 114.13951384344907 144.83093662152368 239.30716522993185 H 0.0 **** 0.06
11285 H 113.39244143540338 146.25320802180389 238.54103525007255 H 0.0 **** 0.06
11286 C 72.27350416379039 33.61699800094934 112.83376632240447 C 0.0 **** -0.24
11287 H 73.32186082423252 33.70249122760893 113.11984423327578 H 0.0 **** 0.06
11288 H 71.70002337407078 34.41039740867592 113.31286079392939 H 0.0 **** 0.06
11289 H 71.8896031051531 32.64768443900769 113.15077506484923 H 0.0 **** 0.06
11290 H 72.18449175377026 33.7063931016059 111.75053797059346 H 0.0 **** 0.06
11291 C 165.45275084066998 36.788175380993266 245.72509416911117 C 0.0 **** -0.24
11292 H 165.464191193339 37.746863241818005 246.24299478773503 H 0.0 **** 0.06
11293 H 164.42451531225566 36.51569212062921 245.48826106620805 H 0.0 **** 0.06
11294 H 165.8944531143328 36.02459443542776 246.36511806673752 H 0.0 **** 0.06
11295 H 166.0295676189682 36.86763532423382 244.80317395806563 H 0.0 **** 0.06
11296 C 120.85024293950124 199.9544016443025 124.57499986522808 C 0.0 **** -0.24
11297 H 121.32152114478112 199.16614745953797 125.16207017052093 H 0.0 **** 0.06
11298 H 119.79327221411293 200.01643675924305 124.83237095218908 H 0.0 **** 0.06
11299 H 120.95348910449056 199.7286429435007 123.51399629077395 H 0.0 **** 0.06
11300 H 121.33429960871129 200.90678456572033 124.7926768386088 H 0.0 **** 0.06
11301 C 223.44700373322397 146.18636696373045 306.70411155271154 C 0.0 **** -0.24
11302 H 223.73245896862096 145.1354445786175 306.65010412440125 H 0.0 **** 0.06
11303 H 222.3603652282199 146.26733486186478 306.703558904857 H 0.0 **** 0.06
11304 H 223.85232748834335 146.7170501502597 305.8422436035273 H 0.0 **** 0.06
11305 H 223.84461068073023 146.62321354109065 307.62028027840324 H 0.0 **** 0.06
11306 C 176.9466689533055 202.2733841741445 236.93165821448923 C 0.0 **** -0.24
11307 H 177.9815413480435 202.5375566218001 237.15224470619182 H 0.0 **** 0.06
11308 H 176.31949147947483 203.16147867902293 237.01723813299463 H 0.0 **** 0.06
11309 H 176.60689356271945 201.51749198386443 237.63881521623188 H 0.0 **** 0.06
11310 H 176.88130027210013 201.87924384076393 235.91762730665042 H 0.0 **** 0.06
11311 C 259.77560842244463 313.15444263815726 306.88099422967264 C 0.0 **** -0.24
11312 H 260.5071292824922 313.96206243834115 306.9011644590403 H 0.0 **** 0.06
11313 H 259.06112433264883 313.33281063872715 306.0774192851649 H 0.0 **** 0.06
11314 H 259.2497658452394 313.1162549111335 307.8346370497559 H 0.0 **** 0.06
11315 H 260.28668594819504 312.20691908695886 306.7088163130058 H 0.0 **** 0.06
11316 C 76.13651813794758 284.2623999975381 6.091277230237722 C 0.0 **** -0.24
11317 H 77.01469558732828 284.1532512235291 5.454126332230544 H 0.0 **** 0.06
11318 H 76.28313668894998 285.10149391692426 6.770693701004632 H 0.0 **** 0.06
11319 H 75.99057188892732 283.34823065655326 6.668106898084318 H 0.0 **** 0.06
11320 H 75.25867833781626 284.4445972788802 5.471248370818728 H 0.0 **** 0.06
11321 C 14.121142976381378 88.17023985180808 251.8519535147839 C 0.0 **** -0.24
11322 H 14.398790365878483 87.3766224051119 251.15882248680552 H 0.0 **** 0.06
11323 H 14.959583606972188 88.38123765886579 252.51683515157558 H 0.0 **** 0.06
11324 H 13.26108244604572 87.85304682472625 252.4423803276485 H 0.0 **** 0.06
11325 H 13.865932355426494 89.06971636784499 251.29206077144303 H 0.0 **** 0.06
11326 C 96.57669638452185 151.25074035406158 17.708690853888 C 0.0 **** -0.24
11327 H 95.90270102584338 150.98735467993134 18.523469100035697 H 0.0 **** 0.06
11328 H 96.92380011915469 150.34259357734726 17.215643411737318 H 0.0 **** 0.06
11329 H 97.43165865162888 151.79674066686198 18.10846770885884 H 0.0 **** 0.06
11330 H 96.04928402212508 151.87730028617386 16.98930694936415 H 0.0 **** 0.06
11331 C 137.98545949326225 190.97968942351554 287.40739520586504 C 0.0 **** -0.24
11332 H 137.69499446106897 190.80967293581637 286.37080859225966 H 0.0 **** 0.06
11333 H 137.3708747608771 191.77392964290027 287.83179411375875 H 0.0 **** 0.06
11334 H 139.0343493872628 191.2709376058637 287.4466740734745 H 0.0 **** 0.06
11335 H 137.84129862847948 190.06301510444445 287.97963221068414 H 0.0 **** 0.06
11336 C 167.7464758554359 256.20889107435306 137.27736828851334 C 0.0 **** -0.24
11337 H 167.08056637640846 256.9649175024908 137.69122810473706 H 0.0 **** 0.06
11338 H 168.48661912611578 256.68883477903216 136.63683622010117 H 0.0 **** 0.06
11339 H 167.16688564989244 255.49557902577823 136.69097979345707 H 0.0 **** 0.06
11340 H 168.2522789318287 255.6861202484935 138.08954146241462 H 0.0 **** 0.06
11341 C 199.09168604827613 190.08215973572095 299.55593179771563 C 0.0 **** -0.24
11342 H 198.68367870575918 189.89923095029053 300.5503252916489 H 0.0 **** 0.06
11343 H 200.06650830473393 189.6020619912096 299.46905789514517 H 0.0 **** 0.06
11344 H 199.1987668569554 191.1556617883266 299.40073710464657 H 0.0 **** 0.06
11345 H 198.41536487234146 189.67290991376444 298.80550818412644 H 0.0 **** 0.06
11346 C 293.65469782762375 231.67749717335911 136.75930464906594 C 0.0 **** -0.24
11347 H 294.4290647216498 231.91969114679307 136.0306090006641 H 0.0 **** 0.06
11348 H 292.6746183548149 231.8911134643604 136.33052654111688 H 0.0 **** 0.06
11349 H 293.7987912714884 232.27893212138778 137.65619061016298 H 0.0 **** 0.06
11350 H 293.7166356081958 230.62028202327957 137.01630111869568 H 0.0 **** 0.06
11351 C 247.76179724697286 62.466036092782815 267.2746203241652 C 0.0 **** -0.24
11352 H 246.85735264964427 62.223759320621156 267.8326456694774 H 0.0 **** 0.06
11353 H 247.85809444719226 63.547974483445415 267.1902016474763 H 0.0 **** 0.06
11354 H 247.70144835596574 62.0271520475176 266.2790214323936 H 0.0 **** 0.06
11355 H 248.62928952838521 62.062938379482745 267.7978809938607 H 0.0 **** 0.06
11356 C 258.3201491367077 58.50497707829001 168.0646846880034 C 0.0 **** -0.24
11357 H 258.0742620945885 59.201753527900365 167.26251731288306 H 0.0 **** 0.06
11358 H 259.40363805820385 58.408460563410756 168.14188361506683 H 0.0 **** 0.06
11359 H 257.88262790675833 57.53075685845573 167.84601944695987 H 0.0 **** 0.06
11360 H 257.9193260199681 58.88024654632804 169.00638581161962 H 0.0 **** 0.06
11361 C 28.667855707379886 263.02862515316366 4.6137933743456045 C 0.0 **** -0.24
11362 H 28.055549810939965 263.12095058583867 3.716692012069828 H 0.0 **** 0.06
11363 H 29.20104514797697 262.0781730918576 4.592223729141637 H 0.0 **** 0.06
11364 H 28.028057391314405 263.06681533403486 5.495733835552414 H 0.0 **** 0.06
11365 H 29.385018032103744 263.8480497012319 4.64923283189718 H 0.0 **** 0.06
11366 C 27.770323862652674 128.74691764225295 290.49589180497094 C 0.0 **** -0.24
11367 H 27.012629613166723 129.28027081464444 291.069142329257 H 0.0 **** 0.06
11368 H 27.318361071986033 127.88010451435213 290.01419689621133 H 0.0 **** 0.06
11369 H 28.5665153086199 128.41683611790998 291.16456790530117 H 0.0 **** 0.06
11370 H 28.18561309305869 129.40971904891242 289.7367215339407 H 0.0 **** 0.06
11371 C 313.6335479816475 34.97304951044066 77.09010909342689 C 0.0 **** -0.24
11372 H 314.1843844272945 35.04106633992376 76.15144606781749 H 0.0 **** 0.06
11373 H 314.08141052773647 35.644041623850086 77.82351558110506 H 0.0 **** 0.06
11374 H 313.673025519669 33.9490234912619 77.46078359168416 H 0.0 **** 0.06
11375 H 312.5952053421609 35.25978152010177 76.92326584941247 H 0.0 **** 0.06
11376 C 6.176473254952697 299.77078932834854 57.87058267739292 C 0.0 **** -0.24
11377 H 6.96016364107966 299.0472451416951 58.09110145334256 H 0.0 **** 0.06
11378 H 5.8643179587488135 299.6626873911701 56.83167248214616 H 0.0 **** 0.06
11379 H 6.556386132952454 300.7791751792913 58.034028477995435 H 0.0 **** 0.06
11380 H 5.323141786413586 299.5932878991173 58.526462243528556 H 0.0 **** 0.06
11381 C 97.49224299960838 198.87574299123048 143.30616021213956 C 0.0 **** -0.24
11382 H 96.94806882416057 197.93326640616914 143.35305047233737 H 0.0 **** 0.06
11383 H 98.54431520888892 198.6778876638117 143.10114390667482 H 0.0 **** 0.06
11384 H 97.39976953263064 199.39604755810797 144.2595867517214 H 0.0 **** 0.06
11385 H 97.07700608638456 199.4966903952763 142.51231515318358 H 0.0 **** 0.06
11386 C 59.704040783407635 246.0035696046254 34.84583648809411 C 0.0 **** -0.24
11387 H 60.66572921720356 246.49024259546005 35.00949194302663 H 0.0 **** 0.06
11388 H 59.51204411790772 245.2975651612634 35.6534263305557 H 0.0 **** 0.06
11389 H 59.72378387490329 245.47204091383395 33.8943141225831 H 0.0 **** 0.06
11390 H 58.91536293580239 246.75692843006493 34.82502564250436 H 0.0 **** 0.06
11391 C 256.15571978559115 213.26847512957067 89.80672577144193 C 0.0 **** -0.24
11392 H 255.90421065449127 214.2184306665098 90.27692464288435 H 0.0 **** 0.06
11393 H 256.8915453619699 213.4356676981911 89.01988543317563 H 0.0 **** 0.06
11394 H 255.25582086596353 212.82824442229656 89.37597617648203 H 0.0 **** 0.06
11395 H 256.57010540433316 212.59180112347974 90.55340387747515 H 0.0 **** 0.06
11396 C 177.41633170152232 208.87547185732888 270.25922287225393 C 0.0 **** -0.24
11397 H 176.89813907158987 209.80470865443743 270.02102185207417 H 0.0 **** 0.06
11398 H 176.6950562765524 208.13877532352956 270.61404864891216 H 0.0 **** 0.06
11399 H 178.15737807528257 209.06208702517296 271.0365776186194 H 0.0 **** 0.06
11400 H 177.91354728161673 208.49838273714744 269.3657684467836 H 0.0 **** 0.06
11401 C 225.7359021595239 14.044382095215738 79.18931850729408 C 0.0 **** -0.24
11402 H 225.58398798846304 13.506473709070079 78.2537374038971 H 0.0 **** 0.06
11403 H 225.2928157281572 15.037387598870637 79.1134447030471 H 0.0 **** 0.06
11404 H 226.80335670215322 14.136238380786324 79.38570986350746 H 0.0 **** 0.06
11405 H 225.26220044000323 13.49586147661293 80.00338862790619 H 0.0 **** 0.06
11406 C 47.79020213173317 184.2540739636135 299.22862859989743 C 0.0 **** -0.24
11407 H 48.125970445119094 184.7658487603673 298.32641324338647 H 0.0 **** 0.06
11408 H 47.13256491479831 183.4296343172656 298.95379245114356 H 0.0 **** 0.06
11409 H 47.25039643610097 184.95479658086924 299.8639584081957 H 0.0 **** 0.06
11410 H 48.65428211630626 183.86473500461284 299.767786562691 H 0.0 **** 0.06
11411 C 187.23590008269707 293.7747118079513 114.27624138543712 C 0.0 **** -0.24
11412 H 187.60989610130594 294.1125410695636 115.24210561635633 H 0.0 **** 0.06
11413 H 186.298985987219 293.23531778874894 114.41775966249617 H 0.0 **** 0.06
11414 H 187.96855134201257 293.1147041339897 113.8132150940371 H 0.0 **** 0.06
11415 H 187.06554606525015 294.63686471014677 113.63135827016202 H 0.0 **** 0.06
11416 C 74.1448646310829 61.89239443105271 19.328676392248582 C 0.0 **** -0.24
11417 H 74.86962848423829 61.2041086986853 18.894446665782638 H 0.0 **** 0.06
11418 H 73.13675871949155 61.578531726586874 19.05476211474732 H 0.0 **** 0.06
11419 H 74.32738871912852 62.89804585306965 18.95159746294125 H 0.0 **** 0.06
11420 H 74.24447153924501 61.88730499336194 20.413770815857262 H 0.0 **** 0.06
11421 C 43.40002216107678 231.4585355582683 31.765062897554003 C 0.0 **** -0.24
11422 H 42.32824628114861 231.2651277468762 31.79564437688461 H 0.0 **** 0.06
11423 H 43.75469566037151 231.38182488572622 30.737914161830787 H 0.0 **** 0.06
11424 H 43.918799166187455 230.72638280157472 32.38513879358629 H 0.0 **** 0.06
11425 H 43.59946775802723 232.46087162403916 32.14512370670849 H 0.0 **** 0.06
11426 C 40.46431644304815 40.63786944685987 166.70391141836893 C 0.0 **** -0.24
11427 H 40.40332636421181 40.70961785656513 167.7896663282168 H 0.0 **** 0.06
11428 H 39.658398695868186 41.21924349466238 166.25607422578628 H 0.0 **** 0.06
11429 H 40.372017379827895 39.5946618080568 166.40286316278343 H 0.0 **** 0.06
11430 H 41.42508179826703 41.02918769668224 166.36726722053731 H 0.0 **** 0.06
11431 C 268.5824844204816 237.73107599120647 123.89200145815624 C 0.0 **** -0.24
11432 H 269.65391789929765 237.8300047509023 124.06635096676524 H 0.0 **** 0.06
11433 H 268.04665718085204 237.87589834079543 124.83075009960115 H 0.0 **** 0.06
11434 H 268.3689867666548 236.73683166461186 123.50037495502087 H 0.0 **** 0.06
11435 H 268.2613846285924 238.48284463263553 123.17112616898135 H 0.0 **** 0.06
11436 C 241.3434980397343 60.412085288903995 201.62026744425424 C 0.0 **** -0.24
11437 H 241.86036892174823 59.78317908925271 202.34407392835533 H 0.0 **** 0.06
11438 H 241.30976160995237 61.43722545149467 201.989395946552 H 0.0 **** 0.06
11439 H 240.3269877718066 60.04353508188461 201.47934202423698 H 0.0 **** 0.06
11440 H 241.87541661102253 60.384793291702636 200.67018738321354 H 0.0 **** 0.06
11441 C 105.54174097560573 270.56564505925667 256.2918809846486 C 0.0 **** -0.24
11442 H 105.41049269450923 270.46361081021007 257.36925661640413 H 0.0 **** 0.06
11443 H 106.14896333193937 269.74037913310514 255.92005775952572 H 0.0 **** 0.06
11444 H 106.04039855294317 271.5105073401754 256.07515479353066 H 0.0 **** 0.06
11445 H 104.56702219228109 270.54996204000196 255.8046236761752 H 0.0 **** 0.06
11446 C 111.80363970084198 217.53557310287752 45.35759857299874 C 0.0 **** -0.24
11447 H 112.39661937500864 216.6602759716447 45.619864432474316 H 0.0 **** 0.06
11448 H 112.20436030189589 218.41224621868557 45.86696150845546 H 0.0 **** 0.06
11449 H 110.76907323859464 217.37824845574755 45.66342293895602 H 0.0 **** 0.06
11450 H 111.84402333262386 217.69237789688327 44.27996052328541 H 0.0 **** 0.06
11451 C 46.94836215785915 166.45098985004847 218.78917987502177 C 0.0 **** -0.24
11452 H 46.54270429639868 166.93106275103446 217.8981209189354 H 0.0 **** 0.06
11453 H 46.798070964222916 165.3730920006504 218.7202731390746 H 0.0 **** 0.06
11454 H 46.43571650431639 166.83384686264083 219.67153427717372 H 0.0 **** 0.06
11455 H 48.01372369469843 166.66643723740344 218.86526906606503 H 0.0 **** 0.06
11456 C 25.888072822763718 219.16512809922548 99.02163270039154 C 0.0 **** -0.24
11457 H 26.10184067943706 220.2161426301518 98.82636081100807 H 0.0 **** 0.06
11458 H 24.922373914447917 218.904182056412 98.58799790718618 H 0.0 **** 0.06
11459 H 25.861680753073358 218.9935195374843 100.09771137320587 H 0.0 **** 0.06
11460 H 26.667294030773746 218.54764933871274 98.57398033231101 H 0.0 **** 0.06
11461 C 50.19609677954708 157.3143566005059 51.49450405721953 C 0.0 **** -0.24
11462 H 49.80812204323311 156.5898333532084 52.20995078097772 H 0.0 **** 0.06
11463 H 50.74693978715493 156.79269831304958 50.71144341786456 H 0.0 **** 0.06
11464 H 50.86230951558241 158.00961779061754 52.00510646329431 H 0.0 **** 0.06
11465 H 49.36693948804168 157.86551165625298 51.049801184949104 H 0.0 **** 0.06
11466 C 167.55572143453645 288.79912715456624 113.42795584163883 C 0.0 **** -0.24
11467 H 168.38920394404852 288.38961840800556 112.8575140467276 H 0.0 **** 0.06
11468 H 166.80004072108 289.1841724612031 112.7428302153298 H 0.0 **** 0.06
11469 H 167.9138796973267 289.6079200446594 114.06575916139093 H 0.0 **** 0.06
11470 H 167.11958151166692 288.01437027759914 114.04705596865765 H 0.0 **** 0.06
11471 C 246.2863086380639 147.3218825662177 303.4658987613991 C 0.0 **** -0.24
11472 H 245.30156040040697 147.57097975346147 303.0699646107365 H 0.0 **** 0.06
11473 H 246.81213484210534 148.23803476977704 303.73499222771625 H 0.0 **** 0.06
11474 H 246.85593105402782 146.78393886980695 302.7075121603035 H 0.0 **** 0.06
11475 H 246.17501895574702 146.6937716380226 304.34939274303497 H 0.0 **** 0.06
11476 C 276.30311238821605 50.08147559502248 172.91362673605624 C 0.0 **** -0.24
11477 H 276.90159870430125 50.64539251906314 172.19847208140243 H 0.0 **** 0.06
11478 H 276.11510482678113 49.0817511825621 172.5201402524483 H 0.0 **** 0.06
11479 H 275.35525270977985 50.5930080180521 173.07764793953305 H 0.0 **** 0.06
11480 H 276.84349715884 50.00466534722909 173.85735277543313 H 0.0 **** 0.06
11481 C 253.73401382530471 258.05190061362407 93.3779777726862 C 0.0 **** -0.24
11482 H 253.80124880324541 258.2575839161391 92.30946891043573 H 0.0 **** 0.06
11483 H 252.69634821148205 257.8484567660149 93.64358844140995 H 0.0 **** 0.06
11484 H 254.08944944766998 258.9170930435646 93.93692224569475 H 0.0 **** 0.06
11485 H 254.34850300975603 257.1849144663216 93.6206883262789 H 0.0 **** 0.06
11486 C 207.82916958036725 235.8885505875848 184.72871025434495 C 0.0 **** -0.24
11487 H 208.76491092185785 235.64362605431393 185.22908956567636 H 0.0 **** 0.06
11488 H 207.17154857074593 236.41227914734793 185.42336798211852 H 0.0 **** 0.06
11489 H 207.34600515146607 234.97107958308874 184.39232142925238 H 0.0 **** 0.06
11490 H 208.03312340003353 236.52855375895982 183.8699011178366 H 0.0 **** 0.06
11491 C 66.0091452534368 98.22831470461927 52.256513872133354 C 0.0 **** -0.24
11492 H 66.37496410185469 98.15681670626961 51.23215018817703 H 0.0 **** 0.06
11493 H 64.9209996083903 98.30256530526648 52.24942442474347 H 0.0 **** 0.06
11494 H 66.43030991063947 99.11497021704434 52.73186815058381 H 0.0 **** 0.06
11495 H 66.31020904396908 97.34031687394139 52.81257483816856 H 0.0 **** 0.06
11496 C 126.04872843163426 250.747387999725 258.75202738168423 C 0.0 **** -0.24
11497 H 125.52337352647419 251.49888097927544 258.1624089656353 H 0.0 **** 0.06
11498 H 125.73024697031533 250.81461789272913 259.792490765028 H 0.0 **** 0.06
11499 H 127.12282377928975 250.922936507473 258.688487965074 H 0.0 **** 0.06
11500 H 125.8186236341825 249.7557735745147 258.3633373247546 H 0.0 **** 0.06
11501 C 265.43574023102633 21.086089382500603 154.79192093528985 C 0.0 **** -0.24
11502 H 266.3840355667434 21.592216086560057 154.6092242773944 H 0.0 **** 0.06
11503 H 265.6220131139098 20.138075299361063 155.29722981528096 H 0.0 **** 0.06
11504 H 264.9350906558334 20.899525549318213 153.8418060531452 H 0.0 **** 0.06
11505 H 264.8041492788365 21.714002840447648 155.41888257694035 H 0.0 **** 0.06
11506 C 77.02547405417823 39.67005104673788 72.33444553385846 C 0.0 **** -0.24
11507 H 77.58888283592623 38.771194884782346 72.08330116054026 H 0.0 **** 0.06
11508 H 76.87401065421292 40.26684272220501 71.43519424365195 H 0.0 **** 0.06
11509 H 77.581582457291 40.25417062083105 73.06847218340556 H 0.0 **** 0.06
11510 H 76.05900981288809 39.3876320667722 72.75139845449428 H 0.0 **** 0.06
11511 C 184.755370093286 183.6881574327773 30.192990980651786 C 0.0 **** -0.24
11512 H 184.43522520674003 184.49924285147648 29.539355728518075 H 0.0 **** 0.06
11513 H 183.91097249685265 183.029592618418 30.394384701105224 H 0.0 **** 0.06
11514 H 185.12682678851888 184.10169797237052 31.12991493159811 H 0.0 **** 0.06
11515 H 185.55000860421848 183.12246006599264 29.70523337506137 H 0.0 **** 0.06
11516 C 89.88056248523844 173.7226856087787 144.03838893138476 C 0.0 **** -0.24
11517 H 89.89732093144164 174.4596628652664 144.8424921812099 H 0.0 **** 0.06
11518 H 88.85397450812229 173.5745996773088 143.70394457111777 H 0.0 **** 0.06
11519 H 90.28455001773244 172.7780907962661 144.40372996038877 H 0.0 **** 0.06
11520 H 90.48737819502065 174.07958349205165 143.2061504164396 H 0.0 **** 0.06
11521 C 153.97142642125556 233.29737446529404 154.52037437426918 C 0.0 **** -0.24
11522 H 153.77392446177953 233.04245398129223 153.47917464668694 H 0.0 **** 0.06
11523 H 153.03651622826794 233.57024144023046 155.01023139080388 H 0.0 **** 0.06
11524 H 154.66350490098858 234.1381801723573 154.56475330929248 H 0.0 **** 0.06
11525 H 154.41029503437937 232.43770289850056 155.02724663595342 H 0.0 **** 0.06
11526 C 247.82592162937365 38.8073577776247 132.3529096782887 C 0.0 **** -0.24
11527 H 247.63908203625203 38.16768401821122 133.21652753713525 H 0.0 **** 0.06
11528 H 247.24426741250318 39.72417425657795 132.44787948884007 H 0.0 **** 0.06
11529 H 247.53208107514257 38.282442347192045 131.44352314169058 H 0.0 **** 0.06
11530 H 248.886675215447 39.05230158196946 132.30528920570617 H 0.0 **** 0.06
11531 C 122.80371700983574 20.064897445141966 231.64202231418395 C 0.0 **** -0.24
11532 H 122.21424872986589 20.33459169949593 232.5189883975131 H 0.0 **** 0.06
11533 H 123.79738772209964 19.746100587131025 231.9578124845615 H 0.0 **** 0.06
11534 H 122.89082389061431 20.92967689229465 230.98382458436845 H 0.0 **** 0.06
11535 H 122.31155228573999 19.250502598322797 231.1108733092536 H 0.0 **** 0.06
11536 C 295.33108161666166 128.7611631627175 104.22165517467647 C 0.0 **** -0.24
11537 H 294.85488179102725 127.78434463376598 104.30603904350869 H 0.0 **** 0.06
11538 H 294.6491097882767 129.45702484167666 103.73148958469571 H 0.0 **** 0.06
11539 H 296.2433610677464 128.67119116222938 103.63231521314964 H 0.0 **** 0.06
11540 H 295.5769061875564 129.13308579969186 105.21668843328953 H 0.0 **** 0.06
11541 C 58.8695969493493 176.57200283860334 247.95932020157002 C 0.0 **** -0.24
11542 H 58.53023247077536 175.662203763329 247.4625669929283 H 0.0 **** 0.06
11543 H 58.345638331817895 177.43136962164505 247.53846457485147 H 0.0 **** 0.06
11544 H 59.9424290110814 176.6895979914542 247.80827684661605 H 0.0 **** 0.06
11545 H 58.6576036259074 176.5036853702008 249.0256282703753 H 0.0 **** 0.06
11546 C 156.21744909584004 12.104031422799608 305.5599354914687 C 0.0 **** -0.24
11547 H 155.89402583356804 12.313110302033408 304.5398552156454 H 0.0 **** 0.06
11548 H 156.6563674201018 13.003952523577112 305.99268954923457 H 0.0 **** 0.06
11549 H 156.96059540300064 11.306623174535005 305.54840282479324 H 0.0 **** 0.06
11550 H 155.36009521129154 11.794518719394574 306.1570565427571 H 0.0 **** 0.06
11551 C 264.03142415929426 247.28187624258675 145.32338854456674 C 0.0 **** -0.24
11552 H 264.3748535635555 246.5906234502045 146.09347956156364 H 0.0 **** 0.06
11553 H 264.00426313472576 248.2934821631794 145.73008142171815 H 0.0 **** 0.06
11554 H 263.03199885375324 246.99493946113884 144.99621474886206 H 0.0 **** 0.06
11555 H 264.71511459015164 247.24972693309664 144.47523103242588 H 0.0 **** 0.06
11556 C 205.51743156087485 114.71043311922111 126.02637632231409 C 0.0 **** -0.24
11557 H 206.10623879033795 113.80071385273408 126.13903175971473 H 0.0 **** 0.06
11558 H 206.1271941794409 115.48273557420245 125.55849833311379 H 0.0 **** 0.06
11559 H 205.18699953119204 115.05261812755066 127.00740560140872 H 0.0 **** 0.06
11560 H 204.64746220042372 114.50455280146983 125.40175646804428 H 0.0 **** 0.06
11561 C 199.9446720973994 305.1951341657516 219.7327759694801 C 0.0 **** -0.24
11562 H 199.15105249702492 305.0396051288535 219.0014463570924 H 0.0 **** 0.06
11563 H 200.87940192860253 304.78590199913907 219.3464075739339 H 0.0 **** 0.06
11564 H 199.68461055118348 304.6921439363527 220.6635386492554 H 0.0 **** 0.06
11565 H 200.064328518686 306.2631550285465 219.9169854456194 H 0.0 **** 0.06
11566 C 182.29238656896553 2.144609906687947 230.80419333988647 C 0.0 **** -0.24
11567 H 183.32296657100073 1.7932993440526843 230.7534380655505 H 0.0 **** 0.06
11568 H 181.83192273598485 1.7847663989268767 231.72415260919982 H 0.0 **** 0.06
11569 H 181.73699300110172 1.7666361441702065 229.9469120784228 H 0.0 **** 0.06
11570 H 182.27990372983248 3.2342985691860804 230.7941860636626 H 0.0 **** 0.06
11571 C 297.84688677080123 55.13426505941479 305.00359546506235 C 0.0 **** -0.24
11572 H 298.7604434654792 55.65748705050561 305.2875589619268 H 0.0 **** 0.06
11573 H 297.26237454918356 54.91319095348268 305.89749593999744 H 0.0 **** 0.06
11574 H 298.10489974328266 54.20318352699559 304.49825613418375 H 0.0 **** 0.06
11575 H 297.26120365416637 55.76220999979691 304.3325315435802 H 0.0 **** 0.06
11576 C 239.70790958663162 299.04943977964 164.95758254558973 C 0.0 **** -0.24
11577 H 239.24180394611693 298.61307347759293 165.8418994228411 H 0.0 **** 0.06
11578 H 239.28392160233494 298.5954065805057 164.06257897689414 H 0.0 **** 0.06
11579 H 240.78211379554259 298.86608224936435 164.98628245400045 H 0.0 **** 0.06
11580 H 239.5230510872487 300.1238695243853 164.943567847863 H 0.0 **** 0.06
11581 C 72.47638953667823 173.41396202929485 88.46993081436122 C 0.0 **** -0.24
11582 H 72.43464757966697 172.62754184536243 87.71575029402518 H 0.0 **** 0.06
11583 H 73.16434965751452 174.1945971870755 88.14242664524528 H 0.0 **** 0.06
11584 H 72.82603888926388 172.99435460934683 89.41377312008785 H 0.0 **** 0.06
11585 H 71.4818013967166 173.83879451017566 88.607550389063 H 0.0 **** 0.06
11586 C 174.97756746768306 252.86096739816202 207.11930034789492 C 0.0 **** -0.24
11587 H 174.86706195531292 251.82453903839092 207.43692769723125 H 0.0 **** 0.06
11588 H 175.72581571435256 252.92089652742246 206.32885211332052 H 0.0 **** 0.06
11589 H 175.29327555196528 253.46862049722444 207.9672204300188 H 0.0 **** 0.06
11590 H 174.0228319064086 253.22927946259418 206.74394773900968 H 0.0 **** 0.06
11591 C 236.88322215547757 22.558887352526114 76.36278751629496 C 0.0 **** -0.24
11592 H 236.23433332425608 22.07641348129667 75.63189655455443 H 0.0 **** 0.06
11593 H 237.22427658634228 21.81962641719548 77.08896759306552 H 0.0 **** 0.06
11594 H 236.32978927848455 23.34417510851347 76.87646108496494 H 0.0 **** 0.06
11595 H 237.74317094522712 22.992487622399096 75.85422166395091 H 0.0 **** 0.06
11596 C 283.96011799534546 8.033335270449754 276.0016962624761 C 0.0 **** -0.24
11597 H 284.26317115050233 7.6690100899566005 275.0202278234358 H 0.0 **** 0.06
11598 H 283.76588379216344 9.104475591084395 275.9475682909884 H 0.0 **** 0.06
11599 H 284.756070482766 7.8435168008546725 276.7212571930961 H 0.0 **** 0.06
11600 H 283.05493302693856 7.514538751246221 276.3169639165054 H 0.0 **** 0.06
11601 C 106.75701836858016 44.316167325816224 72.35360692267051 C 0.0 **** -0.24
11602 H 106.74626113924165 43.248554879105455 72.5714653452942 H 0.0 **** 0.06
11603 H 107.77029255471948 44.7009558763219 72.47039967290732 H 0.0 **** 0.06
11604 H 106.08945609076784 44.83431797578524 73.04328501182019 H 0.0 **** 0.06
11605 H 106.42126654824318 44.48148486819633 71.33025206158158 H 0.0 **** 0.06
11606 C 240.4098108972569 163.6365930061978 204.75556565132547 C 0.0 **** -0.24
11607 H 241.09016305947466 163.65368106671542 205.60712615093956 H 0.0 **** 0.06
11608 H 239.69423082348848 164.4541111494325 204.84589613048792 H 0.0 **** 0.06
11609 H 239.87662224183885 162.68611454104877 204.7344257563289 H 0.0 **** 0.06
11610 H 240.9800416079263 163.75406442190052 203.83442518963614 H 0.0 **** 0.06
11611 C 287.068322292318 163.8846359274085 231.4332634405719 C 0.0 **** -0.24
11612 H 287.85160344668225 164.28775527006786 232.0741376658788 H 0.0 **** 0.06
11613 H 287.503180901816 163.56151354475287 230.48679776716403 H 0.0 **** 0.06
11614 H 286.32098718529124 164.65553442258965 231.24508241511478 H 0.0 **** 0.06
11615 H 286.5972479252461 163.03463185031876 231.92597162540682 H 0.0 **** 0.06
11616 C 188.61794859689826 73.98673315471117 261.1484991716837 C 0.0 **** -0.24
11617 H 187.668510559077 74.35845523488376 261.5327054358666 H 0.0 **** 0.06
11618 H 189.42349695338515 74.64764066081207 261.47037720624064 H 0.0 **** 0.06
11619 H 188.58354720477308 73.95894487861605 260.0589457263286 H 0.0 **** 0.06
11620 H 188.79786438691656 72.98163223370392 261.53142710500407 H 0.0 **** 0.06
11621 C 218.98734435078353 109.4397332632009 286.2371718317165 C 0.0 **** -0.24
11622 H 219.79271573349314 108.7062625527293 286.27071286695735 H 0.0 **** 0.06
11623 H 218.6815405760617 109.59768551614204 285.20271279956256 H 0.0 **** 0.06
11624 H 219.3364857892554 110.3807862767946 286.6613543730563 H 0.0 **** 0.06
11625 H 218.138959119133 109.07365778343859 286.81517320771684 H 0.0 **** 0.06
11626 C 220.36725660214458 291.7278417093928 91.74809038452096 C 0.0 **** -0.24
11627 H 220.16906650376615 291.04018786728756 92.57141792377712 H 0.0 **** 0.06
11628 H 221.41583883280367 292.0240572740892 91.76776251469491 H 0.0 **** 0.06
11629 H 219.736751703199 292.61073889747456 91.85430939709588 H 0.0 **** 0.06
11630 H 220.14495386017495 291.23460250655603 90.80203334186973 H 0.0 **** 0.06
11631 C 57.4034985895172 198.09641920452748 197.02186028393533 C 0.0 **** -0.24
11632 H 57.519952076349284 198.99555299723733 197.627479274054 H 0.0 **** 0.06
11633 H 58.18852637266551 197.38368731976442 197.27555496733038 H 0.0 **** 0.06
11634 H 57.47797733998104 198.35837047403436 195.96565111645788 H 0.0 **** 0.06
11635 H 56.42930189871774 197.64992317936992 197.2175550739653 H 0.0 **** 0.06
11636 C 69.24538139248963 223.48613468346468 177.058226251909 C 0.0 **** -0.24
11637 H 70.11943012657082 223.30397129319516 177.68352750717366 H 0.0 **** 0.06
11638 H 69.56497949555688 223.8749250133415 176.09130873607455 H 0.0 **** 0.06
11639 H 68.59473575934382 224.21299693333918 177.54493548929003 H 0.0 **** 0.06
11640 H 68.70238018848687 222.552645493983 176.9131332750976 H 0.0 **** 0.06
11641 C 199.8247764631313 228.79423486095348 8.646579940462061 C 0.0 **** -0.24
11642 H 200.1206147688332 227.89418250575284 9.185593673992344 H 0.0 **** 0.06
11643 H 199.8097470917886 229.6400078933288 9.333591179906477 H 0.0 **** 0.06
11644 H 198.82993625954305 228.65212653834365 8.223002852566083 H 0.0 **** 0.06
11645 H 200.53711077351062 228.98820586816612 7.845642101705664 H 0.0 **** 0.06
11646 C 64.23203408268017 169.99382618955002 171.58788394586173 C 0.0 **** -0.24
11647 H 63.73473678550516 170.77236244439848 172.16556555688436 H 0.0 **** 0.06
11648 H 65.19048664465069 170.36525981451933 171.22714984375096 H 0.0 **** 0.06
11649 H 63.60584791255894 169.71771245238813 170.73884894103531 H 0.0 **** 0.06
11650 H 64.39380001657861 169.119876095061 172.2188176702793 H 0.0 **** 0.06
11651 C 225.69583877327526 67.62036164710642 259.23384140565975 C 0.0 **** -0.24
11652 H 226.5245345053212 67.99089538383936 258.6308551028136 H 0.0 **** 0.06
11653 H 226.08670252681037 67.14256162765378 260.1327107074587 H 0.0 **** 0.06
11654 H 225.12239271803065 66.89460236014924 258.6572233094738 H 0.0 **** 0.06
11655 H 225.05054336291414 68.45227341130351 259.5148769853031 H 0.0 **** 0.06
11656 C 181.18723769806718 166.82085210372156 63.90943397301788 C 0.0 **** -0.24
11657 H 182.1072206670279 167.1375322740608 63.41785553839446 H 0.0 **** 0.06
11658 H 180.65341555670807 166.12323066632825 63.264118080373976 H 0.0 **** 0.06
11659 H 180.560188792262 167.6914324187037 64.10206038683222 H 0.0 **** 0.06
11660 H 181.4304336188323 166.33160791724134 64.85298218224938 H 0.0 **** 0.06
11661 C 104.18663954888709 59.251965468325295 238.54106797835954 C 0.0 **** -0.24
11662 H 103.86875346045866 59.907605617346974 237.72956641595468 H 0.0 **** 0.06
11663 H 105.24342627454965 59.014317657879445 238.42262524537443 H 0.0 **** 0.06
11664 H 103.6014918002337 58.333093964441616 238.5155215840183 H 0.0 **** 0.06
11665 H 104.0317919710748 59.75568117157974 239.4952336180931 H 0.0 **** 0.06
11666 C 34.96828396464133 76.69379898389911 266.66427191347134 C 0.0 **** -0.24
11667 H 34.74610245351755 77.05770648879229 265.6610764916555 H 0.0 **** 0.06
11668 H 35.68313292016151 77.36348913510506 267.14333394090306 H 0.0 **** 0.06
11669 H 35.39388895434237 75.69252699149251 266.6006390740931 H 0.0 **** 0.06
11670 H 34.05058908850427 76.66221062322222 267.2509785151883 H 0.0 **** 0.06
11671 C 149.86354811049347 2.620079482127352 121.21675348898327 C 0.0 **** -0.24
11672 H 150.55280368309695 2.0856909991043437 120.563647792571 H 0.0 **** 0.06
11673 H 149.94660987982058 2.2269736476315103 122.23141742755348 H 0.0 **** 0.06
11674 H 148.84360782348404 2.4847434973451783 120.85692390159596 H 0.0 **** 0.06
11675 H 150.11187438378442 3.6815187866522336 121.21662810497196 H 0.0 **** 0.06
11676 C 70.73434940155249 204.30265855110895 263.3873676844576 C 0.0 **** -0.24
11677 H 71.46881337093362 205.03447856615526 263.7246235162349 H 0.0 **** 0.06
11678 H 70.39828816664868 204.5612959960335 262.38291366790304 H 0.0 **** 0.06
11679 H 69.88184325919616 204.30290815946404 264.06709378223326 H 0.0 **** 0.06
11680 H 71.18845280943157 203.3119514827829 263.3748397714593 H 0.0 **** 0.06
11681 C 118.55865729983114 171.2076219222559 122.38154086755455 C 0.0 **** -0.24
11682 H 117.65751113053452 171.0827121876987 121.779637637745 H 0.0 **** 0.06
11683 H 118.28486975876166 171.56509787720893 123.37467916522226 H 0.0 **** 0.06
11684 H 119.21754414677912 171.93226354121464 121.90246989177686 H 0.0 **** 0.06
11685 H 119.07281452043861 170.250738159709 122.46729728989001 H 0.0 **** 0.06
11686 C 39.13365775403753 281.17907447577113 59.408609377271574 C 0.0 **** -0.24
11687 H 39.10708380563278 280.89057499803374 58.35829836523763 H 0.0 **** 0.06
11688 H 38.15995186446932 281.572271695536 59.70285441506536 H 0.0 **** 0.06
11689 H 39.89510412997856 281.9464720462494 59.55515201496178 H 0.0 **** 0.06
11690 H 39.37447443272811 280.3079702249023 60.017841730951034 H 0.0 **** 0.06
11691 C 252.26698498348088 47.514504189110085 40.955458821150586 C 0.0 **** -0.24
11692 H 252.58600082655647 48.28990546212444 40.25757909196719 H 0.0 **** 0.06
11693 H 253.13824476493707 46.9603163386698 41.30406829890336 H 0.0 **** 0.06
11694 H 251.579314053443 46.8348694500358 40.452081563291415 H 0.0 **** 0.06
11695 H 251.7649443017054 47.97611019913754 41.805549048027046 H 0.0 **** 0.06
11696 C 191.19280892007646 44.821238903283586 97.78572163640928 C 0.0 **** -0.24
11697 H 190.6069766684737 45.72019408468685 97.98098430772097 H 0.0 **** 0.06
11698 H 190.6265456290575 44.1536293413599 97.13500840034649 H 0.0 **** 0.06
11699 H 191.40834934868832 44.3165619184918 98.72697548641565 H 0.0 **** 0.06
11700 H 192.1279005939772 45.09635819920737 97.2977592559258 H 0.0 **** 0.06
11701 C 33.10734015068226 7.142107131910549 142.65705451277066 C 0.0 **** -0.24
11702 H 32.037331502574034 7.2889588866416375 142.51592196021153 H 0.0 **** 0.06
11703 H 33.27523383968611 6.509003783113272 143.52955162943525 H 0.0 **** 0.06
11704 H 33.58934098246277 8.107570115538437 142.81141051718927 H 0.0 **** 0.06
11705 H 33.528553090218736 6.662293909042518 141.773869776342 H 0.0 **** 0.06
11706 C 220.2364740112874 262.41419239381344 206.74185703052115 C 0.0 **** -0.24
11707 H 220.572179708204 262.3253353663642 205.7090683494169 H 0.0 **** 0.06
11708 H 219.14930128993643 262.49000409245446 206.7656143648386 H 0.0 **** 0.06
11709 H 220.67286636084827 263.30747937145117 207.18994903853928 H 0.0 **** 0.06
11710 H 220.55244948804622 261.5354283951528 207.30272481895088 H 0.0 **** 0.06
11711 C 78.37267370194559 111.88578769527146 140.27415161435397 C 0.0 **** -0.24
11712 H 78.33610108459683 110.81030277696439 140.4520448156591 H 0.0 **** 0.06
11713 H 78.63419122534307 112.07232988562282 139.23208206264397 H 0.0 **** 0.06
11714 H 79.1225932904969 112.33569896343514 140.9244098779114 H 0.0 **** 0.06
11715 H 77.39621049385295 112.3222829055436 140.4879620254461 H 0.0 **** 0.06
11716 C 203.55221248963096 241.43738736143092 152.69534712900605 C 0.0 **** -0.24
11717 H 203.19250626837544 241.17517319705553 153.69064382813394 H 0.0 **** 0.06
11718 H 203.2332360273204 242.45108277038054 152.45023900967664 H 0.0 **** 0.06
11719 H 203.14097021128327 240.7396251205044 151.9661873443124 H 0.0 **** 0.06
11720 H 204.64077927522993 241.38362461857596 152.67717376539366 H 0.0 **** 0.06
11721 C 269.556887440095 310.4875832532139 120.5803095295567 C 0.0 **** -0.24
11722 H 270.08561032378 310.76602845067055 119.66876428452719 H 0.0 **** 0.06
11723 H 268.48913556886873 310.4108119916971 120.3723685044927 H 0.0 **** 0.06
11724 H 269.72471375345026 311.245851975268 121.34446214453351 H 0.0 **** 0.06
11725 H 269.928434999906 309.5252230093408 120.9354525031587 H 0.0 **** 0.06
11726 C 58.24427093065174 72.98991467006405 220.47304477728017 C 0.0 **** -0.24
11727 H 57.68105962959487 73.88374129641466 220.20315341718123 H 0.0 **** 0.06
11728 H 57.91497817199172 72.63580195936848 221.45133401347948 H 0.0 **** 0.06
11729 H 59.30699780568011 73.2274269497967 220.5111741910055 H 0.0 **** 0.06
11730 H 58.07127730953829 72.21319230339626 219.72898099204542 H 0.0 **** 0.06
11731 C 268.9090134265349 47.55859052743716 104.93131120986635 C 0.0 **** -0.24
11732 H 268.6155851733622 48.26940392852612 104.15913343447025 H 0.0 **** 0.06
11733 H 268.8727959134911 46.54749041187324 104.52645173363697 H 0.0 **** 0.06
11734 H 268.224536452118 47.636846970184024 105.77609257296572 H 0.0 **** 0.06
11735 H 269.9232681662161 47.78122810219418 105.26435052917148 H 0.0 **** 0.06
11736 C 226.16030096931632 228.6026326149829 197.29939543940992 C 0.0 **** -0.24
11737 H 225.23788488106837 228.02129811390552 197.31709042447216 H 0.0 **** 0.06
11738 H 227.0137543320701 227.92662133207165 197.24399278191606 H 0.0 **** 0.06
11739 H 226.22843627045208 229.20246310661432 198.20696764705917 H 0.0 **** 0.06
11740 H 226.15817681062595 229.25906671048273 196.42918562764908 H 0.0 **** 0.06
11741 C 197.38354727589973 49.716380052359256 96.70240977345168 C 0.0 **** -0.24
11742 H 196.92368446580423 48.81129407631596 96.3057740196104 H 0.0 **** 0.06
11743 H 196.63892280510544 50.51218256937614 96.74775411261601 H 0.0 **** 0.06
11744 H 198.202706213243 50.0224879578106 96.0509407103466 H 0.0 **** 0.06
11745 H 197.76772224134896 49.52038330805556 97.70317409112465 H 0.0 **** 0.06
11746 C 48.26563515077976 155.81411172073058 267.01876578463236 C 0.0 **** -0.24
11747 H 48.16926365286935 155.60292763415055 265.9538225160015 H 0.0 **** 0.06
11748 H 47.766000879981334 155.03271212641602 267.5901759816074 H 0.0 **** 0.06
11749 H 47.80649532988639 156.77728160860204 267.24092280300965 H 0.0 **** 0.06
11750 H 49.32075425034543 155.84435023135433 267.28957690989773 H 0.0 **** 0.06
11751 C 284.0078899010707 147.87555202804174 264.5511054898404 C 0.0 **** -0.24
11752 H 284.1671724822111 147.88979748924567 263.472801044391 H 0.0 **** 0.06
11753 H 284.97052234221223 147.8231623826282 265.05902423829997 H 0.0 **** 0.06
11754 H 283.4077001923596 147.00484984261163 264.8171569367971 H 0.0 **** 0.06
11755 H 283.48610205313673 148.7828425473084 264.8530784997134 H 0.0 **** 0.06
11756 C 222.20211310563627 118.52571310590048 225.90782474075894 C 0.0 **** -0.24
11757 H 222.15218371574258 118.07791442728094 224.91529174405076 H 0.0 **** 0.06
11758 H 223.21488438334944 118.429057192844 226.2998672465498 H 0.0 **** 0.06
11759 H 221.50520375682999 118.01450371819527 226.57215724225847 H 0.0 **** 0.06
11760 H 221.93577896369908 119.5804926959986 225.84422058557453 H 0.0 **** 0.06
11761 C 4.110458686978177 207.80707826619044 299.40224225843554 C 0.0 **** -0.24
11762 H 4.279601607956636 206.9338406266943 300.0322621367591 H 0.0 **** 0.06
11763 H 4.920834672480055 207.89687475563304 298.6793579668036 H 0.0 **** 0.06
11764 H 4.076030859240689 208.70183068671844 300.02442887360354 H 0.0 **** 0.06
11765 H 3.163552466783699 207.69498683790349 298.8739672613375 H 0.0 **** 0.06
11766 C 127.17608877438721 3.594432869118151 221.0641125310592 C 0.0 **** -0.24
11767 H 127.93001589344576 3.1064818668749297 221.6817726868623 H 0.0 **** 0.06
11768 H 126.29137653170551 3.800414307211099 221.66595905752894 H 0.0 **** 0.06
11769 H 126.90767833488698 2.9405075793454643 220.23476103830703 H 0.0 **** 0.06
11770 H 127.57658947240114 4.530572622481984 220.67347086832527 H 0.0 **** 0.06
11771 C 290.9077100238076 155.84500816237556 250.710087087022 C 0.0 **** -0.24
11772 H 291.83731027229453 156.4106126316953 250.76854484482953 H 0.0 **** 0.06
11773 H 290.5658646166296 155.6027940838287 251.71633775535662 H 0.0 **** 0.06
11774 H 291.07728507012564 154.92498189173273 250.15190941914346 H 0.0 **** 0.06
11775 H 290.15069029389696 156.44385526610614 250.20343668869813 H 0.0 **** 0.06
11776 C 203.2867392143541 243.90241853527306 231.76514027437395 C 0.0 **** -0.24
11777 H 202.46473833189003 244.56905123073176 232.0247009524545 H 0.0 **** 0.06
11778 H 203.21689258135797 242.99156847001748 232.3602175457093 H 0.0 **** 0.06
11779 H 204.23588745406306 244.39829321982546 231.96852480275487 H 0.0 **** 0.06
11780 H 203.22878853725172 243.65003054238065 230.70609619011947 H 0.0 **** 0.06
11781 C 102.57784803956406 235.99231025183653 290.7216255580745 C 0.0 **** -0.24
11782 H 102.94180458498076 235.28483395278977 291.4654395542583 H 0.0 **** 0.06
11783 H 102.47697648686665 236.97846185834476 291.1758681065542 H 0.0 **** 0.06
11784 H 101.60809110885572 235.66221966334334 290.3501581363492 H 0.0 **** 0.06
11785 H 103.28506313372259 236.04432355314745 289.8935043233158 H 0.0 **** 0.06
11786 C 223.7313045389133 26.90289804611811 166.7894431495311 C 0.0 **** -0.24
11787 H 224.5144430381291 27.60264283109339 166.49834578607044 H 0.0 **** 0.06
11788 H 223.5354598350735 27.00204167913799 167.85746550198718 H 0.0 **** 0.06
11789 H 224.05320130703421 25.885123712793046 166.57186047263735 H 0.0 **** 0.06
11790 H 222.8211395663348 27.123529230980978 166.2315166722422 H 0.0 **** 0.06
11791 C 274.7572775934222 19.938209113132487 264.11608230624006 C 0.0 **** -0.24
11792 H 275.203245572997 20.581299468307392 263.35713256626093 H 0.0 **** 0.06
11793 H 273.9075135559987 19.40713515212127 263.6874369078554 H 0.0 **** 0.06
11794 H 274.42126249653734 20.54680784074455 264.95580297100173 H 0.0 **** 0.06
11795 H 275.4988751876625 19.218489678765366 264.4640367546286 H 0.0 **** 0.06
11796 C 91.77358076641897 167.9483604505782 3.4264331206852177 C 0.0 **** -0.24
11797 H 92.49615471235663 167.53559220221882 4.131088795407237 H 0.0 **** 0.06
11798 H 91.61137081498492 169.0033517429925 3.648362516301219 H 0.0 **** 0.06
11799 H 90.83076763533484 167.4077504435673 3.5160354364365816 H 0.0 **** 0.06
11800 H 92.157150700848 167.84428649257302 2.4110750211745398 H 0.0 **** 0.06
11801 C 144.71359752724194 67.44268362443339 254.35375290581482 C 0.0 **** -0.24
11802 H 144.41931167955326 68.09485780572561 253.53185812903814 H 0.0 **** 0.06
11803 H 144.87464577898004 68.04081434129029 255.25081781848615 H 0.0 **** 0.06
11804 H 145.63538432363117 66.92326942658244 254.09330648240729 H 0.0 **** 0.06
11805 H 143.92528874572162 66.71340156023146 254.53962459416942 H 0.0 **** 0.06
11806 C 145.27608585245835 16.266957621459312 233.78084299365815 C 0.0 **** -0.24
11807 H 144.75799364873376 16.300503299214512 232.82274774623565 H 0.0 **** 0.06
11808 H 145.9948080333928 17.084219396005537 233.83420932148084 H 0.0 **** 0.06
11809 H 145.79812554490087 15.31468115261157 233.87814890090772 H 0.0 **** 0.06
11810 H 144.5505854712306 16.36719221864388 234.5889466864366 H 0.0 **** 0.06
11811 C 49.132942004487546 239.55237272331777 76.43239994599776 C 0.0 **** -0.24
11812 H 48.60716593840195 238.74588102735012 75.922113733348 H 0.0 **** 0.06
11813 H 49.010350984479544 240.4789632791198 75.8698835086355 H 0.0 **** 0.06
11814 H 50.192550059688244 239.30719445560388 76.50270453392395 H 0.0 **** 0.06
11815 H 48.7215351254728 239.6783614921613 77.43382770646929 H 0.0 **** 0.06
11816 C 170.6758439514411 80.70547211839738 305.5442310908753 C 0.0 **** -0.24
11817 H 171.50738243512194 80.65402315071785 306.24652953194516 H 0.0 **** 0.06
11818 H 169.74153069237616 80.50836633757396 306.07146671424385 H 0.0 **** 0.06
11819 H 170.81504390578374 79.96114288694034 304.7609816335777 H 0.0 **** 0.06
11820 H 170.6383711430741 81.69972503288903 305.09811531613576 H 0.0 **** 0.06
11821 C 285.34214194666004 171.96063277841995 83.82900712196084 C 0.0 **** -0.24
11822 H 286.1620766149221 172.67851240383806 83.84750935453593 H 0.0 **** 0.06
11823 H 285.2268047383882 171.56692760474374 82.81891904821677 H 0.0 **** 0.06
11824 H 284.41993045687923 172.45400564030535 84.13502760277399 H 0.0 **** 0.06
11825 H 285.5615970930809 171.14194080569746 84.51512026660257 H 0.0 **** 0.06
11826 C 72.60474220169016 200.519909886275 87.95449629103308 C 0.0 **** -0.24
11827 H 72.47689351235161 201.4378379456715 87.38053536767163 H 0.0 **** 0.06
11828 H 73.4404419690049 199.95075226443714 87.54841274486981 H 0.0 **** 0.06
11829 H 71.69453541854145 199.92398777156905 87.8930650955954 H 0.0 **** 0.06
11830 H 72.80588163380816 200.76871343869288 88.99686190569184 H 0.0 **** 0.06
11831 C 249.00524623906898 153.07258146065055 89.66182340663454 C 0.0 **** -0.24
11832 H 249.5384310132505 153.70411241178778 88.95102596333976 H 0.0 **** 0.06
11833 H 249.5212164543655 152.11596496065533 89.75513453974867 H 0.0 **** 0.06
11834 H 247.98868611619432 152.90432801575957 89.30662396440573 H 0.0 **** 0.06
11835 H 248.9742711330386 153.56520441370338 90.633579815502 H 0.0 **** 0.06
11836 C 170.28983546338645 25.262897797038136 61.25487849328579 C 0.0 **** -0.24
11837 H 169.6877281970199 25.765217580897342 60.49741692545376 H 0.0 **** 0.06
11838 H 171.1376676604201 24.77049249638665 60.77797500380109 H 0.0 **** 0.06
11839 H 169.68069321152132 24.52044940590301 61.769881843544454 H 0.0 **** 0.06
11840 H 170.65264269016188 25.997571056931378 61.974014411777944 H 0.0 **** 0.06
11841 C 142.9246732897319 119.19883365731911 91.10916635592733 C 0.0 **** -0.24
11842 H 143.53725558685238 120.00110483435569 91.5225308986553 H 0.0 **** 0.06
11843 H 143.40538098721007 118.79918409590857 90.21645437217592 H 0.0 **** 0.06
11844 H 141.94161694124188 119.59063464337297 90.84855255789816 H 0.0 **** 0.06
11845 H 142.8167387112614 118.4067890384982 91.8493715930349 H 0.0 **** 0.06
11846 C 63.9747234492512 261.22917982059863 206.8519003040384 C 0.0 **** -0.24
11847 H 63.96498470883657 262.26122624338814 207.20241804677173 H 0.0 **** 0.06
11848 H 62.95886177641347 260.8323565696822 206.86413655535478 H 0.0 **** 0.06
11849 H 64.60777783907139 260.6298035155709 207.50597715976625 H 0.0 **** 0.06
11850 H 64.36621060088655 261.19529126772505 205.83486012337335 H 0.0 **** 0.06
11851 C 245.43927663507694 183.67466154402388 143.25962752263524 C 0.0 **** -0.24
11852 H 245.62981079831465 183.4457815877476 142.2112086907007 H 0.0 **** 0.06
11853 H 244.70213070462265 182.97525382542733 143.6553383703589 H 0.0 **** 0.06
11854 H 245.0574019450376 184.69232865928598 143.34595085246406 H 0.0 **** 0.06
11855 H 246.36559824354026 183.58535989311764 143.82545773945012 H 0.0 **** 0.06
11856 C 241.01304549306613 94.60505022582177 205.13632728833312 C 0.0 **** -0.24
11857 H 240.81956347452854 93.67515624747813 204.60145510917033 H 0.0 **** 0.06
11858 H 241.52688453355728 94.38499905135961 206.07216662907678 H 0.0 **** 0.06
11859 H 240.06780540957163 95.10470184574126 205.34941129795868 H 0.0 **** 0.06
11860 H 241.6369475766177 95.2533368961017 204.52217508654644 H 0.0 **** 0.06
11861 C 129.6830607286787 12.740815245129568 101.43351844446599 C 0.0 **** -0.24
11862 H 130.29024468653552 13.171225169142701 100.63774065861557 H 0.0 **** 0.06
11863 H 129.0911127147101 11.917100234108233 101.03379043447691 H 0.0 **** 0.06
11864 H 129.01796934114122 13.503792514077361 101.83724667040394 H 0.0 **** 0.06
11865 H 130.3337512333527 12.369077468259206 102.22510624297459 H 0.0 **** 0.06
11866 C 249.1647928925594 220.61799905331796 157.96232207541266 C 0.0 **** -0.24
11867 H 248.18466790455506 220.18174929810786 157.76602761507405 H 0.0 **** 0.06
11868 H 249.09039590148302 221.3184592173627 158.79379005051237 H 0.0 **** 0.06
11869 H 249.51212838048673 221.14492838254583 157.07322821431717 H 0.0 **** 0.06
11870 H 249.8697494959094 219.8258216600395 158.21401735510312 H 0.0 **** 0.06
11871 C 112.34099280401864 24.984605366127397 16.522153006467647 C 0.0 **** -0.24
11872 H 112.6379434266396 24.23065750632017 15.791836423874784 H 0.0 **** 0.06
11873 H 111.33621930844782 25.33849123760038 16.290445509239348 H 0.0 **** 0.06
11874 H 113.0390068253136 25.82074940852945 16.48374838214015 H 0.0 **** 0.06
11875 H 112.35175593983723 24.546722235042893 17.520163962005583 H 0.0 **** 0.06
11876 C 232.22435052430936 235.50826839551948 295.99806883903074 C 0.0 **** -0.24
11877 H 232.01730976144765 235.36843480469133 294.9374407062958 H 0.0 **** 0.06
11878 H 233.15915438146422 235.00982867063072 296.25536816092614 H 0.0 **** 0.06
11879 H 231.41099367500232 235.0807628721363 296.5862499530186 H 0.0 **** 0.06
11880 H 232.3084460357436 236.57314089880623 296.21460716310946 H 0.0 **** 0.06
11881 C 289.000733108217 235.16214457596368 286.2386534640111 C 0.0 **** -0.24
11882 H 288.85406952764134 235.72902535749716 285.3197621104482 H 0.0 **** 0.06
11883 H 288.1749385556013 234.46281737882583 286.3700124333316 H 0.0 **** 0.06
11884 H 289.0348485937211 235.84623351667457 287.08680722755054 H 0.0 **** 0.06
11885 H 289.93823845159227 234.60968434788387 286.1793089154958 H 0.0 **** 0.06
11886 C 257.7496992465185 195.8942020822863 240.47907699363068 C 0.0 **** -0.24
11887 H 257.00466140094153 196.3903300106681 241.1016354570982 H 0.0 **** 0.06
11888 H 258.7234254500706 195.94595034160096 240.96642773913754 H 0.0 **** 0.06
11889 H 257.8011189660258 196.39001107183884 239.50964220518944 H 0.0 **** 0.06
11890 H 257.46748638691804 194.85086002005517 240.33927502148566 H 0.0 **** 0.06
11891 C 32.61340610963245 95.30962613071586 47.02673425014393 C 0.0 **** -0.24
11892 H 31.52785325573433 95.21391009425454 46.994784383591735 H 0.0 **** 0.06
11893 H 32.910741676336016 96.23676072370634 46.53811440707236 H 0.0 **** 0.06
11894 H 33.0681697845271 94.4637168356357 46.51098448946448 H 0.0 **** 0.06
11895 H 32.946164056611025 95.32252928586544 48.06446639564672 H 0.0 **** 0.06
11896 C 218.75201594812353 94.312125602121 117.22870321044729 C 0.0 **** -0.24
11897 H 217.73004292177032 93.9416609763147 117.1544776068385 H 0.0 **** 0.06
11898 H 219.06882005450893 94.70067878975857 116.26021421519224 H 0.0 **** 0.06
11899 H 219.4135082090134 93.49853217698964 117.52827804664153 H 0.0 **** 0.06
11900 H 218.79722998407368 95.10839097775803 117.97160191949914 H 0.0 **** 0.06
11901 C 91.655156954549 7.192493988552428 51.59504004208904 C 0.0 **** -0.24
11902 H 91.67137381751684 7.544164943994389 52.627436724543 H 0.0 **** 0.06
11903 H 92.55813893877101 6.615510660267475 51.39493475477681 H 0.0 **** 0.06
11904 H 91.61263137800591 8.048789727285978 50.921387656572904 H 0.0 **** 0.06
11905 H 90.7785932964699 6.563721858179207 51.439065329107564 H 0.0 **** 0.06
11906 C 268.17091737342287 205.8878410285913 74.22145918333115 C 0.0 **** -0.24
11907 H 267.60330437641136 206.21469435251356 75.09245960710294 H 0.0 **** 0.06
11908 H 269.1714755281642 206.31922279210323 74.25738278016624 H 0.0 **** 0.06
11909 H 267.66552132322676 206.217171209176 73.31445984073548 H 0.0 **** 0.06
11910 H 268.24338808940706 204.80042797475892 74.22294036693313 H 0.0 **** 0.06
11911 C 104.7287377081638 179.039409400274 275.29783989646216 C 0.0 **** -0.24
11912 H 104.76273067534817 179.63682478035258 276.2088045999142 H 0.0 **** 0.06
11913 H 104.63414551932229 177.9845171199742 275.5586826695823 H 0.0 **** 0.06
11914 H 105.64604920785303 179.1923088451096 274.7300655414467 H 0.0 **** 0.06
11915 H 103.87331142054478 179.3433001578714 274.6955022681433 H 0.0 **** 0.06
11916 C 109.14310101924792 157.72827759849702 111.84986591290479 C 0.0 **** -0.24
11917 H 108.24518057847928 157.1100795479491 111.83916991928047 H 0.0 **** 0.06
11918 H 109.79525849990927 157.43637390641663 111.02736594326993 H 0.0 **** 0.06
11919 H 109.66747001998155 157.591260873436 112.79579134331965 H 0.0 **** 0.06
11920 H 108.86402516245676 158.7760943887755 111.73827294358824 H 0.0 **** 0.06
11921 C 276.7810866176577 276.5528388323629 65.56242178403713 C 0.0 **** -0.24
11922 H 276.69303286398 277.5315792854022 65.0907948000119 H 0.0 **** 0.06
11923 H 277.8309177463308 276.2617532780994 65.60133389790866 H 0.0 **** 0.06
11924 H 276.2223123194466 275.8190579098904 64.98115919850642 H 0.0 **** 0.06
11925 H 276.3784638336016 276.5996152489014 66.57429391573064 H 0.0 **** 0.06
11926 C 227.95965282878282 204.73649064682917 144.7655421283369 C 0.0 **** -0.24
11927 H 227.39716270763026 203.85671543625097 145.07938889984726 H 0.0 **** 0.06
11928 H 228.07991935486982 204.72325664941985 143.6819687911952 H 0.0 **** 0.06
11929 H 228.9399609013022 204.73013708382376 145.24133836843072 H 0.0 **** 0.06
11930 H 227.4181451448571 205.63633402315799 145.05924722066834 H 0.0 **** 0.06
11931 C 65.18661925329073 208.2780586223389 150.4980604194759 C 0.0 **** -0.24
11932 H 65.65518626219816 209.03176883968752 151.13122723660587 H 0.0 **** 0.06
11933 H 65.42923663380995 207.28489115343473 150.87733675645626 H 0.0 **** 0.06
11934 H 65.55660721534983 208.3793741084708 149.47872170167432 H 0.0 **** 0.06
11935 H 64.10551945805389 208.41674237543583 150.50851983550592 H 0.0 **** 0.06
11936 C 23.440412878394028 91.4153889393803 147.66304967526054 C 0.0 **** -0.24
11937 H 23.05944805679269 91.31462350146916 148.6794386176494 H 0.0 **** 0.06
11938 H 23.797134133625605 90.4469906246326 147.3116225818259 H 0.0 **** 0.06
11939 H 24.261695775399147 92.13147705499014 147.6520696668342 H 0.0 **** 0.06
11940 H 22.64201926770744 91.7682382920093 147.00940655277157 H 0.0 **** 0.06
11941 C 254.50977589317893 107.88907989251689 108.74521516198178 C 0.0 **** -0.24
11942 H 253.6557080106004 108.377185474746 109.21471100062047 H 0.0 **** 0.06
11943 H 255.1065260256793 107.38910605889362 109.50897350130657 H 0.0 **** 0.06
11944 H 255.1203081090964 108.63546390295346 108.23778569030651 H 0.0 **** 0.06
11945 H 254.15617292136992 107.1552994415396 108.02227288968018 H 0.0 **** 0.06
11946 C 22.947792427167684 191.0779750228901 261.9244685321714 C 0.0 **** -0.24
11947 H 22.464054475925167 191.24213890442286 262.88759374030377 H 0.0 **** 0.06
11948 H 22.85127381548503 190.02854333637566 261.64524345258116 H 0.0 **** 0.06
11949 H 24.002829703911914 191.34006382139853 261.9993427811249 H 0.0 **** 0.06
11950 H 22.471223196849223 191.70199373543483 261.1681631924386 H 0.0 **** 0.06
11951 C 244.59297372556114 18.97528983180439 116.95554254284687 C 0.0 **** -0.24
11952 H 243.68645089811318 18.785576345622076 117.53068383721586 H 0.0 **** 0.06
11953 H 244.4567435009231 18.614480001571167 115.93501231213426 H 0.0 **** 0.06
11954 H 245.43137357582376 18.453903942322256 117.41683073124628 H 0.0 **** 0.06
11955 H 244.7947053002862 20.04568965567887 116.93872194270531 H 0.0 **** 0.06
11956 C 19.255346168352332 227.5785529319319 27.096614251475728 C 0.0 **** -0.24
11957 H 18.846953424695357 227.4860435105483 28.103171118032293 H 0.0 **** 0.06
11958 H 19.914099563466266 226.73508339441412 26.892493089017933 H 0.0 **** 0.06
11959 H 19.820009384567527 228.50792430161954 27.018073419482988 H 0.0 **** 0.06
11960 H 18.439503146198717 227.58705721138477 26.37357470070532 H 0.0 **** 0.06
11961 C 268.1528530542189 67.60468532278279 211.20201720144377 C 0.0 **** -0.24
11962 H 267.0687996712607 67.60559681415398 211.08735777968383 H 0.0 **** 0.06
11963 H 268.4442002840637 68.39091025517786 211.89875423861238 H 0.0 **** 0.06
11964 H 268.6202804777244 67.78594950103937 210.2339390779129 H 0.0 **** 0.06
11965 H 268.4764937444695 66.63874101749289 211.5874852868481 H 0.0 **** 0.06
11966 C 250.29712732264397 307.8228925641364 217.4235804819514 C 0.0 **** -0.24
11967 H 249.76140407956825 307.2438368610183 218.1763131390739 H 0.0 **** 0.06
11968 H 250.21277201750394 308.8842641175172 217.6550668834904 H 0.0 **** 0.06
11969 H 249.86597380902313 307.6288949731467 216.44182800346744 H 0.0 **** 0.06
11970 H 251.34824674045674 307.5327239157375 217.42236425929147 H 0.0 **** 0.06
11971 C 53.361526990897204 114.52246229817001 230.1878350663744 C 0.0 **** -0.24
11972 H 52.865397356765584 115.44712963502448 229.8919498607057 H 0.0 **** 0.06
11973 H 52.638917758324624 113.70694445446 230.18689186769484 H 0.0 **** 0.06
11974 H 53.777618330275516 114.63892576271152 231.18901218004385 H 0.0 **** 0.06
11975 H 54.16324613382827 114.30022887403558 229.48433306475235 H 0.0 **** 0.06
11976 C 217.07660172813382 31.645851856320803 212.84140296266077 C 0.0 **** -0.24
11977 H 217.1248963724973 31.611270115926914 213.92979906732222 H 0.0 **** 0.06
11978 H 216.04779418668497 31.483128250540062 212.51833110360963 H 0.0 **** 0.06
11979 H 217.71498178456662 30.86703612001361 212.42467607276996 H 0.0 **** 0.06
11980 H 217.41759004775412 32.621144469483056 212.49274462170504 H 0.0 **** 0.06
11981 C 157.05075704891618 277.79870868026524 239.91442292516018 C 0.0 **** -0.24
11982 H 157.8087333440336 277.39983224717207 240.58943098610854 H 0.0 **** 0.06
11983 H 156.2436026347762 277.0742925444364 239.80593622747844 H 0.0 **** 0.06
11984 H 157.49905593983925 277.991873075425 238.93963014072065 H 0.0 **** 0.06
11985 H 156.65356397919788 278.72805006030694 240.32140401809744 H 0.0 **** 0.06
11986 C 239.98515351626833 76.09956879023946 161.33228715424906 C 0.0 **** -0.24
11987 H 239.49264277022468 75.32607600750623 161.92209426921102 H 0.0 **** 0.06
11988 H 241.05723568547748 75.90512360661688 161.301138428159 H 0.0 **** 0.06
11989 H 239.80566870557774 77.07313641408899 161.78719442991326 H 0.0 **** 0.06
11990 H 239.58490316668258 76.09249916395811 160.31777296793774 H 0.0 **** 0.06
11991 C 14.452106838950257 56.62429792293125 256.1674493785105 C 0.0 **** -0.24
11992 H 14.019634976822857 56.38151724597989 257.13771324884885 H 0.0 **** 0.06
11993 H 13.798572541532636 57.32150001249451 255.6434107186279 H 0.0 **** 0.06
11994 H 14.559578089458128 55.713087702685584 255.5787293972634 H 0.0 **** 0.06
11995 H 15.431596827180456 57.08184246153874 256.3118194404647 H 0.0 **** 0.06
11996 C 139.5379570324227 126.16897273375693 98.37376940444423 C 0.0 **** -0.24
11997 H 138.7734650015476 125.77609722086899 97.70282743980425 H 0.0 **** 0.06
11998 H 140.43093446316087 125.547621783562 98.30889527256065 H 0.0 **** 0.06
11999 H 139.1622059490394 126.16160958390185 99.39683746495689 H 0.0 **** 0.06
12000 H 139.78367480049084 127.1913844835785 98.0851288904154 H 0.0 **** 0.06
12001 C 101.04373403755045 43.52570066111906 309.32741426955744 C 0.0 **** -0.24
12002 H 100.66522263227509 43.40620732483009 310.3421510850511 H 0.0 **** 0.06
12003 H 100.73921928838027 44.498285147976276 308.93868616295237 H 0.0 **** 0.06
12004 H 100.63955141968137 42.73702362882369 308.6934526805076 H 0.0 **** 0.06
12005 H 102.13256249348339 43.46275663453784 309.33646963890817 H 0.0 **** 0.06
12006 C 82.60017839729636 274.9241637710272 1.4616954997431861 C 0.0 **** -0.24
12007 H 83.41936173772723 275.399448257108 2.001142124858518 H 0.0 **** 0.06
12008 H 82.97218691980157 274.52604072786147 0.517095554584742 H 0.0 **** 0.06
12009 H 81.82021039708405 275.65853487860903 1.2642965680141174 H 0.0 **** 0.06
12010 H 82.19170687960471 274.11204973031226 2.063205395301381 H 0.0 **** 0.06
12011 C 65.50539123673272 127.18785707989849 17.15323074385134 C 0.0 **** -0.24
12012 H 64.76743952044257 126.96707835992189 17.924160292595317 H 0.0 **** 0.06
12013 H 65.86046164043006 128.21109994847063 17.272417096640396 H 0.0 **** 0.06
12014 H 65.04739115613623 127.07413537882977 16.170143435637414 H 0.0 **** 0.06
12015 H 66.34433007874745 126.49853638436929 17.245257615357346 H 0.0 **** 0.06
12016 C 175.02944138076697 307.8387009255239 14.190028287693636 C 0.0 **** -0.24
12017 H 174.07582740290422 307.8034560898534 14.716856089755808 H 0.0 **** 0.06
12018 H 175.5488523091267 306.8884250554763 14.315145871931534 H 0.0 **** 0.06
12019 H 175.64057214924765 308.6432180871447 14.599183112384168 H 0.0 **** 0.06
12020 H 174.85245426568497 308.01987669055325 13.1306505242529 H 0.0 **** 0.06
12021 C 249.96061344504287 289.4830857242672 119.24125264335012 C 0.0 **** -0.24
12022 H 249.87534910383312 288.3968683397083 119.27917542905143 H 0.0 **** 0.06
12023 H 248.97185782622097 289.9190455669884 119.09487062145357 H 0.0 **** 0.06
12024 H 250.6100731697366 289.7672134483944 118.41337170295293 H 0.0 **** 0.06
12025 H 250.38428991992885 289.8474842920152 120.17712190695426 H 0.0 **** 0.06
12026 C 224.94684247002033 34.63191669361197 98.80721307045539 C 0.0 **** -0.24
12027 H 224.75994321328807 33.595086027031755 98.52786707338967 H 0.0 **** 0.06
12028 H 224.8372167770806 35.26980875011765 97.93004530842896 H 0.0 **** 0.06
12029 H 225.95924224089623 34.72513099037215 99.19961738566337 H 0.0 **** 0.06
12030 H 224.23181085764526 34.93711490570689 99.5714330624323 H 0.0 **** 0.06
12031 C 95.16601829190245 297.5380500191838 109.00089968120733 C 0.0 **** -0.24
12032 H 95.13818626321421 298.16840289781084 108.11261539545148 H 0.0 **** 0.06
12033 H 94.16596378740724 297.4700376709254 109.43029886965454 H 0.0 **** 0.06
12034 H 95.84741105531302 297.97150009474706 109.73272703947134 H 0.0 **** 0.06
12035 H 95.51301458521755 296.54095734435896 108.72772917544134 H 0.0 **** 0.06
12036 C 6.548542489214427 256.45568433190726 30.20619498347031 C 0.0 **** -0.24
12037 H 7.083505512492877 255.5379137323698 30.44937195222633 H 0.0 **** 0.06
12038 H 6.392535937138675 256.5105340678188 29.128487780534698 H 0.0 **** 0.06
12039 H 7.13355847401769 257.31506864311314 30.532812879865872 H 0.0 **** 0.06
12040 H 5.583730360705445 256.45810626785027 30.71387799789622 H 0.0 **** 0.06
12041 C 134.95813209253654 271.7739471236248 231.0179198306706 C 0.0 **** -0.24
12042 H 133.9777696792131 271.3556332821198 231.24221519586453 H 0.0 **** 0.06
12043 H 134.83942408440052 272.6865865500335 230.4337751254197 H 0.0 **** 0.06
12044 H 135.53990598605031 271.04967634519073 230.4484162547858 H 0.0 **** 0.06
12045 H 135.47649814826983 272.0032827877803 231.94884900873024 H 0.0 **** 0.06
12046 C 271.2474377552527 287.95302372658557 264.114982263951 C 0.0 **** -0.24
12047 H 270.48478995392065 288.6728157151349 264.4118225798311 H 0.0 **** 0.06
12048 H 271.45200914757623 287.2768711185163 264.9446518022295 H 0.0 **** 0.06
12049 H 272.1606979837162 288.48383702354033 263.8447964908273 H 0.0 **** 0.06
12050 H 270.89334665866994 287.3803607270422 263.2573920720255 H 0.0 **** 0.06
12051 C 245.2114793497391 85.80648143022972 26.975197206540088 C 0.0 **** -0.24
12052 H 245.17554096259093 86.45141196207345 26.098149098462727 H 0.0 **** 0.06
12053 H 244.45730393397002 86.12724013109244 27.693684260742828 H 0.0 **** 0.06
12054 H 246.19877387082778 85.87093912061493 27.432501355224986 H 0.0 **** 0.06
12055 H 245.01570923798923 84.77600202783321 26.6774026161022 H 0.0 **** 0.06
12056 C 214.8447855639358 76.2942948254339 148.31619345234873 C 0.0 **** -0.24
12057 H 213.8675432781971 76.65205888082016 147.99274060662967 H 0.0 **** 0.06
12058 H 215.0425598895281 75.32134004736812 147.8667897761379 H 0.0 **** 0.06
12059 H 214.8559194248955 76.20201803102961 149.40281545933976 H 0.0 **** 0.06
12060 H 215.61267558959588 77.0015869045613 148.00330661666538 H 0.0 **** 0.06
12061 C 84.08383255854395 145.5110364141972 130.37160954312458 C 0.0 **** -0.24
12062 H 83.20962186460625 145.92809845911847 130.87113958375215 H 0.0 **** 0.06
12063 H 84.22618954164307 144.47771117923827 130.69163424316793 H 0.0 **** 0.06
12064 H 84.96517462422617 146.09734052612927 130.63218583319204 H 0.0 **** 0.06
12065 H 83.93289799661474 145.54033712555045 129.2921677523982 H 0.0 **** 0.06
12066 C 231.97015628927997 69.16137558935915 61.892985833297956 C 0.0 **** -0.24
12067 H 232.95124940082394 68.7603725734447 62.149314220182674 H 0.0 **** 0.06
12068 H 231.49109761408437 68.50910399737958 61.162912614143124 H 0.0 **** 0.06
12069 H 232.08417005328084 70.1592412385655 61.47038039767597 H 0.0 **** 0.06
12070 H 231.35479364513108 69.21547895059433 62.7910170088326 H 0.0 **** 0.06
12071 C 204.47878182443702 185.7096971829942 254.4673475119587 C 0.0 **** -0.24
12072 H 205.08422146636337 185.73470048413077 255.3724707175659 H 0.0 **** 0.06
12073 H 203.42345251877248 185.66411399280793 254.73709105938298 H 0.0 **** 0.06
12074 H 204.7426019976307 184.83153714284765 253.87743547358443 H 0.0 **** 0.06
12075 H 204.66519277809465 186.61018784955303 253.88071400349406 H 0.0 **** 0.06
12076 C 122.00407832455957 122.43831885876318 167.2549430511026 C 0.0 **** -0.24
12077 H 122.90197966147304 122.70743758933793 167.8106449901444 H 0.0 **** 0.06
12078 H 121.68992448987953 121.4326347050459 167.53720553275235 H 0.0 **** 0.06
12079 H 122.21542058333827 122.46804667133964 166.1864375279855 H 0.0 **** 0.06
12080 H 121.20773315004266 123.14586574442433 167.48746427796573 H 0.0 **** 0.06
12081 C 268.1303767899829 213.89999543111446 243.7147736688805 C 0.0 **** -0.24
12082 H 267.76227259240153 213.56990727937233 244.68606531441276 H 0.0 **** 0.06
12083 H 268.34379583591556 213.0294075819399 243.0923240963799 H 0.0 **** 0.06
12084 H 269.0429397947517 214.48158305407856 243.85019506571643 H 0.0 **** 0.06
12085 H 267.3741851809206 214.51763380781333 243.23027760525366 H 0.0 **** 0.06
12086 C 67.8673608102772 211.63820773578766 213.69670398135662 C 0.0 **** -0.24
12087 H 68.4401899336035 212.5240440417172 213.42131300999836 H 0.0 **** 0.06
12088 H 68.48642825816037 210.75017590357868 213.57006153622115 H 0.0 **** 0.06
12089 H 66.98676457857377 211.5616769128256 213.05862509802083 H 0.0 **** 0.06
12090 H 67.55524761316161 211.71781856755263 214.73895098964175 H 0.0 **** 0.06
12091 C 187.9769812410318 274.8780928273902 253.87344553963305 C 0.0 **** -0.24
12092 H 188.39933290167687 274.8021212527597 254.87544291725445 H 0.0 **** 0.06
12093 H 187.97001430138556 275.9227846699549 253.56047625755897 H 0.0 **** 0.06
12094 H 186.95729003842536 274.49413501651173 253.8794950690962 H 0.0 **** 0.06
12095 H 188.58152770845106 274.2946780223056 253.17872323135572 H 0.0 **** 0.06
12096 C 212.47785727719452 68.85873537722296 179.4631289482898 C 0.0 **** -0.24
12097 H 213.42001238129973 69.24538155969287 179.850301822613 H 0.0 **** 0.06
12098 H 211.83579759764524 69.68973616967159 179.17182944813868 H 0.0 **** 0.06
12099 H 211.98233444632297 68.27086375140934 180.23640602027086 H 0.0 **** 0.06
12100 H 212.67265012825285 68.22834120822733 178.59626201447225 H 0.0 **** 0.06
12101 C 311.4016187525182 113.67223950773845 43.29009028218684 C 0.0 **** -0.24
12102 H 310.84980217911186 113.00439560655258 43.95099068264025 H 0.0 **** 0.06
12103 H 312.18856007665704 113.11229423418635 42.783249084039596 H 0.0 **** 0.06
12104 H 311.84720473189606 114.47670278112992 43.87544600975701 H 0.0 **** 0.06
12105 H 310.7215536831655 114.09343759298591 42.550439675944716 H 0.0 **** 0.06
12106 C 126.764993920183 69.75485743937381 268.941199735619 C 0.0 **** -0.24
12107 H 126.74088597647889 70.6647499876367 269.5407626655705 H 0.0 **** 0.06
12108 H 127.11711690879025 69.99137147804183 267.93569196673553 H 0.0 **** 0.06
12109 H 125.76216376119379 69.32979058848869 268.8843736756465 H 0.0 **** 0.06
12110 H 127.43966410587231 69.03361437056006 269.4025671886885 H 0.0 **** 0.06
12111 C 31.150440767188343 170.59036303673156 221.62831823525568 C 0.0 **** -0.24
12112 H 30.83224068229879 171.53594823019404 221.18869601073843 H 0.0 **** 0.06
12113 H 31.377283659454804 170.74021132729956 222.68504296437726 H 0.0 **** 0.06
12114 H 32.04076143665753 170.23042766185608 221.11325126995825 H 0.0 **** 0.06
12115 H 30.351160137104245 169.85676229286872 221.52858475139942 H 0.0 **** 0.06
12116 C 306.2054782209694 102.30705998638456 311.3263838307466 C 0.0 **** -0.24
12117 H 307.2821683135074 102.15293161300801 311.396770182418 H 0.0 **** 0.06
12118 H 305.89828526871685 103.0627182689145 312.0495383101893 H 0.0 **** 0.06
12119 H 305.6906611103232 101.36998282440817 311.5378243281108 H 0.0 **** 0.06
12120 H 305.95189415172865 102.641753409845 310.3211382008675 H 0.0 **** 0.06
12121 C 280.28864292114196 280.80117020256694 241.87344968495722 C 0.0 **** -0.24
12122 H 279.5198340858993 281.5301570520743 241.62087793309422 H 0.0 **** 0.06
12123 H 280.2723776053773 279.9893432286406 241.14550411079796 H 0.0 **** 0.06
12124 H 280.0972450649241 280.40090188784774 242.8694589672033 H 0.0 **** 0.06
12125 H 281.265847605559 281.2840870634263 241.85730466947217 H 0.0 **** 0.06
12126 C 17.362289704484127 219.66445865423876 281.76206416021495 C 0.0 **** -0.24
12127 H 16.649859435320053 220.12038718474184 282.4493731411891 H 0.0 **** 0.06
12128 H 17.53320712701378 220.33419097207957 280.91856418261705 H 0.0 **** 0.06
12129 H 16.961443643336438 218.71800272533378 281.39956869989896 H 0.0 **** 0.06
12130 H 18.30387241900982 219.4858704385001 282.28061944902703 H 0.0 **** 0.06
12131 C 190.23121490628301 66.7722032751874 311.0182407553419 C 0.0 **** -0.24
12132 H 190.8886195630883 66.91228417941258 311.87521963427105 H 0.0 **** 0.06
12133 H 189.60696946069953 65.89169119148784 311.1787569725528 H 0.0 **** 0.06
12134 H 190.83147161383874 66.63265998597731 310.11921744916117 H 0.0 **** 0.06
12135 H 189.59681133058814 67.6504816424002 310.8986976129072 H 0.0 **** 0.06
12136 C 122.5457014334327 116.47150014547739 169.26510829129637 C 0.0 **** -0.24
12137 H 123.01041967311846 115.78789787726302 168.55385288618794 H 0.0 **** 0.06
12138 H 121.57909711589494 116.07377483434888 169.57296542775265 H 0.0 **** 0.06
12139 H 122.40636337732587 117.44454820920424 168.79406931010993 H 0.0 **** 0.06
12140 H 123.18966577703549 116.57957962917067 170.13834085077525 H 0.0 **** 0.06
12141 C 219.66461417548305 1.876925788526023 35.602785385346806 C 0.0 **** -0.24
12142 H 219.0725749712148 2.7343187407023493 35.283071051958814 H 0.0 **** 0.06
12143 H 219.00121413197627 1.0929923038810898 35.96784431626679 H 0.0 **** 0.06
12144 H 220.34233640082982 2.1812455323749305 36.40066095873607 H 0.0 **** 0.06
12145 H 220.24334175355176 1.5013081427496218 34.75901164559099 H 0.0 **** 0.06
12146 C 13.83175847594542 60.88237218319534 287.0400309520712 C 0.0 **** -0.24
12147 H 13.03208870123379 60.885382679455915 286.2993889751712 H 0.0 **** 0.06
12148 H 13.404061890647725 60.99114326724248 288.03716626702993 H 0.0 **** 0.06
12149 H 14.512347903572092 61.71055499269244 286.8431385604325 H 0.0 **** 0.06
12150 H 14.37845799576894 59.940464638398396 286.9799629146705 H 0.0 **** 0.06
12151 C 157.49034278363507 100.44852371573907 162.86355568675464 C 0.0 **** -0.24
12152 H 157.6697364175812 100.74875687737816 161.8306963898139 H 0.0 **** 0.06
12153 H 156.43159781844616 100.56649972300679 163.09706182395473 H 0.0 **** 0.06
12154 H 158.08242872866379 101.07411693822817 163.53141922299534 H 0.0 **** 0.06
12155 H 157.77712915911184 99.4047568824991 162.99310384113494 H 0.0 **** 0.06
12156 C 163.95467450824174 182.21493509044012 216.95457470110716 C 0.0 **** -0.24
12157 H 163.08042013272973 181.82197880824168 217.47260558104344 H 0.0 **** 0.06
12158 H 163.82598182668107 183.28485261636047 216.78530852125738 H 0.0 **** 0.06
12159 H 164.06878173957108 181.70681962324375 215.99699046878243 H 0.0 **** 0.06
12160 H 164.8426756949508 182.04813259151496 217.563743122632 H 0.0 **** 0.06
12161 C 14.13800227365958 223.07929369357913 22.095070860562856 C 0.0 **** -0.24
12162 H 15.15186799738305 223.47751669588024 22.124753876138783 H 0.0 **** 0.06
12163 H 14.102969282881247 222.22623937199512 21.416629729057234 H 0.0 **** 0.06
12164 H 13.454860328538516 223.85205925003095 21.74222269400954 H 0.0 **** 0.06
12165 H 13.841991323062672 222.76199521099988 23.094333355743515 H 0.0 **** 0.06
12166 C 203.33888448435061 222.98221570259068 28.700108791563594 C 0.0 **** -0.24
12167 H 202.51385657801063 223.53289746718457 28.247934158141675 H 0.0 **** 0.06
12168 H 203.6826791758827 222.210982447595 28.010553262171584 H 0.0 **** 0.06
12169 H 203.0017515043732 222.51867269930358 29.626981266987798 H 0.0 **** 0.06
12170 H 204.15862391016532 223.6689559034158 28.91462808448489 H 0.0 **** 0.06
12171 C 135.98602897565175 280.49576822888525 57.913758296587815 C 0.0 **** -0.24
12172 H 135.10106273778183 279.8599756734801 57.957689376462724 H 0.0 **** 0.06
12173 H 135.8782312810272 281.31702464997545 58.622109125363124 H 0.0 **** 0.06
12174 H 136.0945923451908 280.8953463527483 56.905973764530245 H 0.0 **** 0.06
12175 H 136.86795166125754 279.9085143781886 58.16830227794941 H 0.0 **** 0.06
12176 C 235.9255925936704 63.88805251349592 222.579315312573 C 0.0 **** -0.24
12177 H 235.53385301974564 64.39142600136498 221.6955044802903 H 0.0 **** 0.06
12178 H 237.0063032846789 63.78197946581105 222.48841834950463 H 0.0 **** 0.06
12179 H 235.46898453479653 62.90213505606084 222.66802945435347 H 0.0 **** 0.06
12180 H 235.69193726018557 64.47794763327073 223.46614352984056 H 0.0 **** 0.06
12181 C 5.461616647633647 245.03222594676728 75.79095672622276 C 0.0 **** -0.24
12182 H 6.172109182473008 245.27516357581885 76.58085356423811 H 0.0 **** 0.06
12183 H 4.758887146140282 245.8574883218052 75.6683369145533 H 0.0 **** 0.06
12184 H 4.916770102900429 244.12713454498575 76.05860228505568 H 0.0 **** 0.06
12185 H 5.9991706178344515 244.870080361311 74.85695678726759 H 0.0 **** 0.06
12186 C 270.8335600884336 67.55787070157393 39.80375267471652 C 0.0 **** -0.24
12187 H 270.915378583953 68.32194848872112 39.029888846483374 H 0.0 **** 0.06
12188 H 271.81345408559446 67.11355182808163 39.97900062455466 H 0.0 **** 0.06
12189 H 270.1364847676431 66.78553909446444 39.479735340966556 H 0.0 **** 0.06
12190 H 270.4704335181137 68.01330605355346 40.72515165710041 H 0.0 **** 0.06
12191 C 181.7690569467229 94.90433810721558 193.78166179504746 C 0.0 **** -0.24
12192 H 180.75504652966134 95.01771705114189 194.1650199028316 H 0.0 **** 0.06
12193 H 181.93361799125893 93.86696387877791 193.49273149817748 H 0.0 **** 0.06
12194 H 182.48269563226955 95.18442038211725 194.55652958758765 H 0.0 **** 0.06
12195 H 181.90330131362106 95.54958568185108 192.91324117737065 H 0.0 **** 0.06
12196 C 9.04515207959382 97.89045058553819 54.76669703792612 C 0.0 **** -0.24
12197 H 9.58675628749397 96.9495222867383 54.674881113484815 H 0.0 **** 0.06
12198 H 9.310134917180605 98.54488005270923 53.936115603399 H 0.0 **** 0.06
12199 H 9.312353573565005 98.37282418115612 55.70760427649833 H 0.0 **** 0.06
12200 H 7.973519997849877 97.69566590876767 54.74996520233452 H 0.0 **** 0.06
12201 C 106.08223619240371 253.74486265155764 34.45551467177856 C 0.0 **** -0.24
12202 H 105.83602652365065 252.88661185689523 35.08112775082961 H 0.0 **** 0.06
12203 H 106.32244575101885 254.5988397649116 35.08979916088896 H 0.0 **** 0.06
12204 H 105.22864507801481 253.98982953378675 33.82274473717371 H 0.0 **** 0.06
12205 H 106.9415816849914 253.50338543072354 33.828957067249576 H 0.0 **** 0.06
12206 C 288.45919077583994 276.6284376817131 168.21377525589008 C 0.0 **** -0.24
12207 H 289.372011562029 276.0322863581706 168.21337017029134 H 0.0 **** 0.06
12208 H 287.59291777458026 275.9656221367389 168.2091928876152 H 0.0 **** 0.06
12209 H 288.4377471683724 277.26052372579807 167.32675510468914 H 0.0 **** 0.06
12210 H 288.4338343701145 277.2531772979129 169.10637584555542 H 0.0 **** 0.06
12211 C 311.1704892545391 251.06868458838792 117.8884041369727 C 0.0 **** -0.24
12212 H 310.9401704130939 250.2350602015446 117.22517419061816 H 0.0 **** 0.06
12213 H 312.17731340925417 250.94635229843337 118.28802931563311 H 0.0 **** 0.06
12214 H 310.4532733665116 251.0876248851626 118.70910443914062 H 0.0 **** 0.06
12215 H 311.11059141987187 252.00297891391313 117.33177795663516 H 0.0 **** 0.06
12216 C 133.7556672386953 86.10312900860404 253.01704405715975 C 0.0 **** -0.24
12217 H 134.3571582575523 85.19443300368607 253.00774499333747 H 0.0 **** 0.06
12218 H 133.777859535185 86.56302065130592 252.02936924926365 H 0.0 **** 0.06
12219 H 134.16056746394167 86.79902002035439 253.7518759138996 H 0.0 **** 0.06
12220 H 132.72667733193762 85.85538379500355 253.2803697819493 H 0.0 **** 0.06
12221 C 231.74858645044827 258.88694114281753 82.01578531784281 C 0.0 **** -0.24
12222 H 230.896402613243 258.5352713650695 81.43392414321687 H 0.0 **** 0.06
12223 H 232.4490196765367 259.40191854160025 81.35790316517858 H 0.0 **** 0.06
12224 H 232.24617228042524 258.0364710452189 82.48202163729943 H 0.0 **** 0.06
12225 H 231.40264106348297 259.57350698954497 82.78801486537068 H 0.0 **** 0.06
12226 C 253.28518301013722 123.47695434918558 306.4983435160385 C 0.0 **** -0.24
12227 H 253.74332830027112 122.59837805900327 306.95261760252225 H 0.0 **** 0.06
12228 H 252.21551365345778 123.30730791353054 306.3765202715813 H 0.0 **** 0.06
12229 H 253.7384989369989 123.65983460701781 305.523740091667 H 0.0 **** 0.06
12230 H 253.44542164105016 124.34291821609588 307.13979539068123 H 0.0 **** 0.06
12231 C 61.14062162391576 262.7861173035062 225.389836328932 C 0.0 **** -0.24
12232 H 61.325710626568195 262.21197453267524 224.4809548745493 H 0.0 **** 0.06
12233 H 61.027051507088316 262.1041251355972 226.2330046781999 H 0.0 **** 0.06
12234 H 60.22821531606189 263.3707255117195 225.26904590898312 H 0.0 **** 0.06
12235 H 61.98096674173027 263.45579508090833 225.57329234074376 H 0.0 **** 0.06
12236 C 17.67525520132797 208.69523535245676 90.6419624878566 C 0.0 **** -0.24
12237 H 17.035309678114444 208.35665729771597 91.45662498050487 H 0.0 **** 0.06
12238 H 17.33954467977925 209.67504553044864 90.3004382332766 H 0.0 **** 0.06
12239 H 17.62042375304719 207.98451037394713 89.81723837152356 H 0.0 **** 0.06
12240 H 18.703766255273237 208.7656616245906 90.99402000575529 H 0.0 **** 0.06
12241 C 170.31041482530554 27.01920343473907 46.904156399309244 C 0.0 **** -0.24
12242 H 170.00056611469557 25.975139564035516 46.960314795304555 H 0.0 **** 0.06
12243 H 170.44333459113938 27.30179603774826 45.86021573860296 H 0.0 **** 0.06
12244 H 171.25165747809558 27.146573750068256 47.439317518352965 H 0.0 **** 0.06
12245 H 169.5460186091783 27.649879322586997 47.35828160232447 H 0.0 **** 0.06
12246 C 86.14778259103312 5.110383907286348 63.81380841417746 C 0.0 **** -0.24
12247 H 86.43026257108173 5.765948765903715 62.989808942752575 H 0.0 **** 0.06
12248 H 85.67858028681187 5.6989810542182795 64.60186611775103 H 0.0 **** 0.06
12249 H 87.03830229970129 4.618925508347502 64.20732797714078 H 0.0 **** 0.06
12250 H 85.44600685430032 4.357106620425554 63.4549721047384 H 0.0 **** 0.06
12251 C 207.58020001050758 241.40558455041617 120.90643825054454 C 0.0 **** -0.24
12252 H 207.87557767870555 240.40306433066797 120.59654215006293 H 0.0 **** 0.06
12253 H 208.45496004777195 242.05724042003976 120.90550945988579 H 0.0 **** 0.06
12254 H 207.1572900928037 241.36539007589843 121.91003077428297 H 0.0 **** 0.06
12255 H 206.83501460685142 241.79588981090197 120.2131599020218 H 0.0 **** 0.06
12256 C 1.3238998854795199 215.93805254763416 168.5628779955519 C 0.0 **** -0.24
12257 H 1.58881966561637 215.61164873790264 169.56865153563263 H 0.0 **** 0.06
12258 H 0.36961490480351245 216.46405558922498 168.59057864269766 H 0.0 **** 0.06
12259 H 1.2414304491143184 215.07025111063572 167.90896071853194 H 0.0 **** 0.06
12260 H 2.09695160087756 216.6069731268026 168.18326943556264 H 0.0 **** 0.06
12261 C 20.01555224128171 163.03120920340154 116.82905206250814 C 0.0 **** -0.24
12262 H 19.682643012781313 162.56756753400418 117.7577340309715 H 0.0 **** 0.06
12263 H 20.970943740169872 162.59904318304513 116.52992672296287 H 0.0 **** 0.06
12264 H 20.13435977920986 164.10445185767577 116.98029797895538 H 0.0 **** 0.06
12265 H 19.275773382555727 162.85461545642454 116.04834645985909 H 0.0 **** 0.06
12266 C 239.75612652712388 104.02306119260547 311.47354695596243 C 0.0 **** -0.24
12267 H 240.18457220558798 103.13823100886432 311.9446214700613 H 0.0 **** 0.06
12268 H 239.07993608107753 104.51474736477422 312.17190326355666 H 0.0 **** 0.06
12269 H 239.20483336549944 103.72633874405355 310.5803515708951 H 0.0 **** 0.06
12270 H 240.55544058397038 104.70982693604623 311.19523561649305 H 0.0 **** 0.06
12271 C 75.95685476901264 16.080932370540012 212.6081156457539 C 0.0 **** -0.24
12272 H 75.34488748141206 16.355604191827922 213.46680812611652 H 0.0 **** 0.06
12273 H 75.35241527238915 15.518818410727661 211.89659885840905 H 0.0 **** 0.06
12274 H 76.7937011731232 15.466431600714415 212.94048479452943 H 0.0 **** 0.06
12275 H 76.33640610320654 16.98410739799297 212.12926492908866 H 0.0 **** 0.06
12276 C 72.54821589812349 86.9400409665441 14.22314358339186 C 0.0 **** -0.24
12277 H 72.89075870406882 87.89864269838398 13.832633021854505 H 0.0 **** 0.06
12278 H 72.14130783653795 87.07984691960962 15.224662167893342 H 0.0 **** 0.06
12279 H 73.38607146683157 86.24380268009963 14.264394595333755 H 0.0 **** 0.06
12280 H 71.77405637205862 86.53875368543865 13.568941858224633 H 0.0 **** 0.06
12281 C 278.3394504215573 57.58508839495636 177.96055576196147 C 0.0 **** -0.24
12282 H 277.51660006715645 58.30034096059882 177.96378285713718 H 0.0 **** 0.06
12283 H 277.9387597723291 56.571719655651805 177.92689340890075 H 0.0 **** 0.06
12284 H 278.9333853419409 57.71115126238578 178.86508094566528 H 0.0 **** 0.06
12285 H 278.9670042131439 57.75785054972971 177.08593136892324 H 0.0 **** 0.06
12286 C 30.27517411178971 263.68802607998384 265.8877619324911 C 0.0 **** -0.24
12287 H 30.95196523436735 263.60630160965457 266.73725956609337 H 0.0 **** 0.06
12288 H 30.794246766378706 264.1633146955397 265.05436486676854 H 0.0 **** 0.06
12289 H 29.411405788775966 264.290182341211 266.1691539546145 H 0.0 **** 0.06
12290 H 29.944050408188332 262.69329727546193 265.5900002040846 H 0.0 **** 0.06
12291 C 41.978119398792046 43.764098947393336 255.81445690549617 C 0.0 **** -0.24
12292 H 41.570425836707244 44.76884198203467 255.70560498165406 H 0.0 **** 0.06
12293 H 41.17389638392433 43.06919706136179 256.05500847689603 H 0.0 **** 0.06
12294 H 42.71791467772945 43.75674577967513 256.61470888116395 H 0.0 **** 0.06
12295 H 42.45146062908523 43.46213906738899 254.87946670954278 H 0.0 **** 0.06
12296 C 35.44552154594902 302.8254409908946 54.03969794365594 C 0.0 **** -0.24
12297 H 35.893065247508616 302.0964517437791 54.714759910955934 H 0.0 **** 0.06
12298 H 35.85108726362114 303.8147656745447 54.25230196634686 H 0.0 **** 0.06
12299 H 34.3651512603293 302.837552027907 54.183512818911254 H 0.0 **** 0.06
12300 H 35.672698046913865 302.55359783438166 53.00949336209203 H 0.0 **** 0.06
12301 C 61.80283964674442 187.81058594315215 105.81495966427639 C 0.0 **** -0.24
12302 H 61.24540575007782 187.70050101702498 104.88448983016966 H 0.0 **** 0.06
12303 H 61.12462178826132 187.6970751983045 106.66100883525033 H 0.0 **** 0.06
12304 H 62.263451649794945 188.79734891577436 105.84784983367601 H 0.0 **** 0.06
12305 H 62.578343648456865 187.04519003712176 105.86558582299543 H 0.0 **** 0.06
12306 C 83.14186560510566 310.1875987959629 152.83102243607578 C 0.0 **** -0.24
12307 H 83.6279533290928 309.45485712815696 153.4756143421983 H 0.0 **** 0.06
12308 H 82.19428650635493 309.7848566408662 152.47290100525612 H 0.0 **** 0.06
12309 H 83.78827994376081 310.40740766317947 151.98087720244138 H 0.0 **** 0.06
12310 H 82.95859892807442 311.1027790444481 153.3945876858188 H 0.0 **** 0.06
12311 C 242.40380493709083 251.6586728543843 113.69818817201201 C 0.0 **** -0.24
12312 H 243.15018720243785 252.4464045801176 113.59456098789394 H 0.0 **** 0.06
12313 H 242.6556696175741 251.0302749321446 114.5524730098038 H 0.0 **** 0.06
12314 H 242.3878190229772 251.05191867017663 112.79232219711477 H 0.0 **** 0.06
12315 H 241.42177011264982 252.10700556398774 113.85233984983702 H 0.0 **** 0.06
12316 C 249.6223683273526 168.66371460373654 134.6522142619367 C 0.0 **** -0.24
12317 H 249.93110284560703 169.37890774415382 135.41472597968908 H 0.0 **** 0.06
12318 H 250.15689576336368 168.86803292897758 133.724187972036 H 0.0 **** 0.06
12319 H 248.54927660802616 168.75614565962786 134.48102425786774 H 0.0 **** 0.06
12320 H 249.8505762673809 167.653158618404 134.9882500905205 H 0.0 **** 0.06
12321 C 104.30042402188352 115.29807200910591 240.27598320418514 C 0.0 **** -0.24
12322 H 105.23341805058826 115.14445321692688 239.73396221016787 H 0.0 **** 0.06
12323 H 104.1543620687138 116.3640796696609 240.45198015308563 H 0.0 **** 0.06
12324 H 104.34480196202003 114.77441787830958 241.23063303377447 H 0.0 **** 0.06
12325 H 103.46997995227565 114.90916775419748 239.6868868819426 H 0.0 **** 0.06
12326 C 81.76076362053539 48.554907439505484 216.43231177972996 C 0.0 **** -0.24
12327 H 82.01814715343471 47.513636596816724 216.62631203543094 H 0.0 **** 0.06
12328 H 80.81598345276115 48.60065110622881 215.89134662552183 H 0.0 **** 0.06
12329 H 82.54545970512476 49.01726536912756 215.8338599874125 H 0.0 **** 0.06
12330 H 81.66360069573997 49.08757879341289 217.37904508480125 H 0.0 **** 0.06
12331 C 173.14326599353996 246.72775509152916 207.8884492973403 C 0.0 **** -0.24
12332 H 173.68734500210405 245.84013479773063 208.21438733675316 H 0.0 **** 0.06
12333 H 173.4447127663778 246.98630465892808 206.8733397886822 H 0.0 **** 0.06
12334 H 173.37142475975787 247.55750789302132 208.55780736140923 H 0.0 **** 0.06
12335 H 172.07349210570464 246.52606894667377 207.91064989396796 H 0.0 **** 0.06
12336 C 269.387221335463 170.11783673226347 139.29689854842033 C 0.0 **** -0.24
12337 H 269.6526112663231 169.67728808881463 140.25754959014964 H 0.0 **** 0.06
12338 H 269.3517195954139 171.20335227282874 139.39218228366366 H 0.0 **** 0.06
12339 H 268.41110650805274 169.74793638832824 138.98514556380513 H 0.0 **** 0.06
12340 H 270.13470330364714 169.8427189859707 138.5520675019652 H 0.0 **** 0.06
12341 C 213.27612322164867 147.68802381223273 45.23923744857663 C 0.0 **** -0.24
12342 H 212.30438546741885 147.20596864877825 45.35051597538612 H 0.0 **** 0.06
12343 H 213.42892161761472 148.38897926913742 46.06112458008661 H 0.0 **** 0.06
12344 H 213.30804606838137 148.22620161762262 44.292210559341015 H 0.0 **** 0.06
12345 H 214.06027789903985 146.93184745285294 45.25533403949564 H 0.0 **** 0.06
12346 C 35.639070367163185 4.200622730107696 287.7894512767333 C 0.0 **** -0.24
12347 H 36.386162268221824 4.950943531496705 288.049556523467 H 0.0 **** 0.06
12348 H 34.649630851251345 4.657770536111556 287.7886283628076 H 0.0 **** 0.06
12349 H 35.66613840430432 3.3930896528271575 288.5205429241753 H 0.0 **** 0.06
12350 H 35.85617265856416 3.801465080041183 286.7980416131552 H 0.0 **** 0.06
12351 C 116.55591342109534 50.83500000272113 308.3213498081571 C 0.0 **** -0.24
12352 H 117.3040963270794 51.431374923516785 308.8444613138715 H 0.0 **** 0.06
12353 H 116.10329779262261 50.12866149441385 309.01683262724316 H 0.0 **** 0.06
12354 H 117.03209630065052 50.28992660901278 307.5057921985276 H 0.0 **** 0.06
12355 H 115.78640547084476 51.49302061255659 307.9180475145228 H 0.0 **** 0.06
12356 C 17.80301859445234 32.098076021337164 111.16680616668935 C 0.0 **** -0.24
12357 H 17.60671371719883 31.97435719304329 110.10110620741872 H 0.0 **** 0.06
12358 H 17.781371468219916 31.123204959146932 111.65464340105711 H 0.0 **** 0.06
12359 H 17.03900321371475 32.740758020634786 111.60464597454356 H 0.0 **** 0.06
12360 H 18.78390116655315 32.55234861628165 111.30479216820638 H 0.0 **** 0.06
12361 C 121.92489979421902 217.00991191848442 38.123997280212535 C 0.0 **** -0.24
12362 H 122.46944851015832 216.1698614082552 37.691453419289815 H 0.0 **** 0.06
12363 H 122.46400177404979 217.93509852575806 37.91927026963475 H 0.0 **** 0.06
12364 H 121.83792158197213 216.86928486257716 39.20109206195377 H 0.0 **** 0.06
12365 H 120.93004359885222 217.06371118058263 37.682488347741554 H 0.0 **** 0.06
12366 C 135.46875688123015 205.0523706247846 193.36985439451013 C 0.0 **** -0.24
12367 H 134.5536799583313 205.44304225729513 192.92233203706365 H 0.0 **** 0.06
12368 H 136.19077852410888 204.83095891552216 192.58328846827857 H 0.0 **** 0.06
12369 H 135.2418471601761 204.14175826366176 193.9228484713417 H 0.0 **** 0.06
12370 H 135.88617653513572 205.79624790202797 194.047924284406 H 0.0 **** 0.06
12371 C 10.851383116299132 9.996430197133023 42.356445813246836 C 0.0 **** -0.24
12372 H 11.757455915131288 9.41041015992188 42.20599667140377 H 0.0 **** 0.06
12373 H 10.02643329873635 9.330918970323836 42.61415488052168 H 0.0 **** 0.06
12374 H 10.610315095070135 10.53453677831888 41.43949386901164 H 0.0 **** 0.06
12375 H 11.009868667712809 10.709663663647987 43.16522495581981 H 0.0 **** 0.06
12376 C 161.8837825173871 277.43831336354174 286.4453990988519 C 0.0 **** -0.24
12377 H 162.83042963003288 277.43438199017544 285.9051925292788 H 0.0 **** 0.06
12378 H 162.07487230584115 277.55983027020017 287.5125217219728 H 0.0 **** 0.06
12379 H 161.36456099280292 276.4955026994405 286.27429559666075 H 0.0 **** 0.06
12380 H 161.26592770016674 278.262900035045 286.09066174056534 H 0.0 **** 0.06
12381 C 134.23691927195452 262.77892205661414 93.07096136691047 C 0.0 **** -0.24
12382 H 133.20849978260358 262.825097232233 92.71231452335888 H 0.0 **** 0.06
12383 H 134.83549953558108 263.5305925817719 92.55685589394238 H 0.0 **** 0.06
12384 H 134.64677639663887 261.7891821735158 92.87291226898896 H 0.0 **** 0.06
12385 H 134.25535002697322 262.97150454876925 94.14423656299579 H 0.0 **** 0.06
12386 C 109.78192787371901 205.74879641748868 177.67388604517555 C 0.0 **** -0.24
12387 H 110.57400815356849 205.38772303696555 178.32969942791834 H 0.0 **** 0.06
12388 H 110.13928295380765 205.7579630394851 176.6442503479654 H 0.0 **** 0.06
12389 H 109.49645616168371 206.75835245764142 177.97019982336928 H 0.0 **** 0.06
12390 H 108.91702395816728 205.089287901999 177.75220647350136 H 0.0 **** 0.06
12391 C 214.523044398043 254.69227888557091 36.36835835368649 C 0.0 **** -0.24
12392 H 213.48491143015173 254.40040635502606 36.53242152626004 H 0.0 **** 0.06
12393 H 215.069822055457 253.85603605086675 35.93248857340063 H 0.0 **** 0.06
12394 H 214.97640992431366 254.96818754828917 37.32051036889965 H 0.0 **** 0.06
12395 H 214.55709730251488 255.54400117096742 35.68913828815349 H 0.0 **** 0.06
12396 C 96.46249162838478 38.225626139764216 246.18412519398754 C 0.0 **** -0.24
12397 H 95.56422782048185 38.28651110574518 245.5693264428978 H 0.0 **** 0.06
12398 H 96.30173317400502 37.51012348868571 246.99177798729534 H 0.0 **** 0.06
12399 H 96.68135997126012 39.20657799731859 246.60487505735875 H 0.0 **** 0.06
12400 H 97.30122588510258 37.8984639852857 245.5699744638119 H 0.0 **** 0.06
12401 C 153.32011741560768 156.80911756336673 154.1323674811515 C 0.0 **** -0.24
12402 H 153.2266086496254 156.78590635783894 155.21790131231472 H 0.0 **** 0.06
12403 H 152.4234589793278 156.38060557619525 153.68110426567085 H 0.0 **** 0.06
12404 H 154.1916610881396 156.22923257896377 153.8299995298446 H 0.0 **** 0.06
12405 H 153.435786474699 157.84113405022487 153.80014166524415 H 0.0 **** 0.06
12406 C 253.80565306431973 81.03982088614501 192.44093573076515 C 0.0 **** -0.24
12407 H 254.60497210627958 80.71567098499688 191.7745039932663 H 0.0 **** 0.06
12408 H 252.858825546022 80.61650317560714 192.10413590737272 H 0.0 **** 0.06
12409 H 253.74177575062726 82.12767801975073 192.4292355784425 H 0.0 **** 0.06
12410 H 254.01717266645448 80.6979395456701 193.45420714453826 H 0.0 **** 0.06
12411 C 211.96835130940534 240.98804965180778 239.76282164994478 C 0.0 **** -0.24
12412 H 212.1641912283242 240.2348483521551 240.52567738735706 H 0.0 **** 0.06
12413 H 212.86395022041376 241.58975867320473 239.60819243560823 H 0.0 **** 0.06
12414 H 211.1505903112788 241.6304849812796 240.0895067394073 H 0.0 **** 0.06
12415 H 211.6942386617663 240.49710770937548 238.82958662544956 H 0.0 **** 0.06
12416 C 24.52770058181372 159.4696876110101 285.01194136672257 C 0.0 **** -0.24
12417 H 25.372876213951457 159.11349282494137 285.60070598350865 H 0.0 **** 0.06
12418 H 24.788669939814156 160.41452819746996 284.5344085262349 H 0.0 **** 0.06
12419 H 23.66736981108795 159.61777493315054 285.66549585182156 H 0.0 **** 0.06
12420 H 24.28085304720034 158.73225978381817 284.24835912303246 H 0.0 **** 0.06
12421 C 159.43081559824566 36.16745484170772 292.5450149657023 C 0.0 **** -0.24
12422 H 160.04951154745214 36.14397679455641 293.44117312483036 H 0.0 **** 0.06
12423 H 158.61577270967166 36.87858673631055 292.6850716507811 H 0.0 **** 0.06
12424 H 159.01897770575482 35.175482110768854 292.36178287999 H 0.0 **** 0.06
12425 H 160.03708347389608 36.473292795827774 291.6918990519331 H 0.0 **** 0.06
12426 C 271.88745221687776 304.7226849013228 231.46870052333185 C 0.0 **** -0.24
12427 H 271.5713367098849 305.0931899499415 232.4430286703105 H 0.0 **** 0.06
12428 H 271.01423710440093 304.5919070014619 230.82903743918064 H 0.0 **** 0.06
12429 H 272.39603257970714 303.7663217614557 231.5912195424991 H 0.0 **** 0.06
12430 H 272.56932068678486 305.44064361934625 231.0115189129686 H 0.0 **** 0.06
12431 C 307.5777693800378 212.13456084588307 168.27185838522382 C 0.0 **** -0.24
12432 H 308.1099951302265 213.08579115365086 168.27180974779458 H 0.0 **** 0.06
12433 H 308.19556985756395 211.37195903017692 168.7478031278843 H 0.0 **** 0.06
12434 H 307.3640277629961 211.839110878459 167.24428785658637 H 0.0 **** 0.06
12435 H 306.6430429259346 212.24173201369376 168.8219675975231 H 0.0 **** 0.06
12436 C 218.2186227114804 157.2712679775844 206.50495546490862 C 0.0 **** -0.24
12437 H 217.4484087967237 157.21982318607837 207.27487644226184 H 0.0 **** 0.06
12438 H 219.1999121118273 157.15998364918465 206.96498835040865 H 0.0 **** 0.06
12439 H 218.16134355460395 158.23446806503114 205.9977237223609 H 0.0 **** 0.06
12440 H 218.06273687740494 156.4708406659529 205.78143830748496 H 0.0 **** 0.06
12441 C 226.96995585908098 18.797350914937212 260.68291472060343 C 0.0 **** -0.24
12442 H 226.29763566670533 19.567276837110455 261.06147248799005 H 0.0 **** 0.06
12443 H 226.53391986946406 17.81423196608597 260.86242544893406 H 0.0 **** 0.06
12444 H 227.92903356492792 18.86887391623678 261.1960441048979 H 0.0 **** 0.06
12445 H 227.11942083720146 18.939420483773517 259.6126143853213 H 0.0 **** 0.06
12446 C 29.69836038973628 50.214569342454325 25.37529016775474 C 0.0 **** -0.24
12447 H 30.531710090690865 50.35907950360075 24.688102102634474 H 0.0 **** 0.06
12448 H 30.029743075958493 50.411344791229 26.394735255352003 H 0.0 **** 0.06
12449 H 29.34132428620171 49.186985643045745 25.300870310179363 H 0.0 **** 0.06
12450 H 28.891186624660833 50.89977539694115 25.116721946828733 H 0.0 **** 0.06
12451 C 117.9143566118934 101.91164440806935 82.27421740399961 C 0.0 **** -0.24
12452 H 118.36699359701501 101.63118245942817 81.32258448648506 H 0.0 **** 0.06
12453 H 117.93871651254639 101.05953642898277 82.95262062613193 H 0.0 **** 0.06
12454 H 116.88160550942803 102.21727204049776 82.10914694428143 H 0.0 **** 0.06
12455 H 118.47277930905037 102.7395494132644 82.71079928927543 H 0.0 **** 0.06
12456 C 286.0815411262647 231.2508416756899 230.9124725228986 C 0.0 **** -0.24
12457 H 285.9120961458196 230.2191584722681 230.60640306954352 H 0.0 **** 0.06
12458 H 285.5259097111823 231.92054192022044 230.25561586759602 H 0.0 **** 0.06
12459 H 287.1460571501935 231.47877363860152 230.84772678486883 H 0.0 **** 0.06
12460 H 285.7434844919106 231.38501625322465 231.94041281710534 H 0.0 **** 0.06
12461 C 298.51416658657894 28.261092709715115 298.19824947733 C 0.0 **** -0.24
12462 H 298.22252217931606 27.61036120111811 299.02223818508264 H 0.0 **** 0.06
12463 H 299.4038256436339 27.858763172108013 297.71413579891805 H 0.0 **** 0.06
12464 H 298.7280644056435 29.258534368270347 298.58187978038495 H 0.0 **** 0.06
12465 H 297.7005512032627 28.31702829280806 297.4747333609639 H 0.0 **** 0.06
12466 C 279.43786644422784 63.32319784216094 59.82361758162821 C 0.0 **** -0.24
12467 H 279.2954249891317 64.3991621706895 59.92043980127593 H 0.0 **** 0.06
12468 H 278.49352130955083 62.813080690404604 60.01800666479886 H 0.0 **** 0.06
12469 H 280.18649274747804 62.989509174160816 60.54211732453109 H 0.0 **** 0.06
12470 H 279.77533336459067 63.09040260049878 58.813569165046005 H 0.0 **** 0.06
12471 C 256.6096607213468 94.42354869279995 306.3113360761985 C 0.0 **** -0.24
12472 H 255.55959428473176 94.49015703892354 306.0282033282149 H 0.0 **** 0.06
12473 H 257.1296593988522 93.75374672670631 305.62646378776424 H 0.0 **** 0.06
12474 H 256.6878088111154 94.03740848086483 307.3281521693757 H 0.0 **** 0.06
12475 H 257.06158702959425 95.41484778337377 306.2645591655287 H 0.0 **** 0.06
12476 C 139.49799609967636 16.78509192047528 310.57728032441406 C 0.0 **** -0.24
12477 H 140.2424041365359 16.896452701399326 309.7892208097007 H 0.0 **** 0.06
12478 H 138.83971501414715 17.65387348813175 310.5807372288499 H 0.0 **** 0.06
12479 H 139.99953861006477 16.705190048177016 311.5424322073185 H 0.0 **** 0.06
12480 H 138.91154526509283 15.883612035276059 310.3984569835529 H 0.0 **** 0.06
12481 C 270.8487048388738 110.79385171046383 123.49476995870828 C 0.0 **** -0.24
12482 H 270.19809095602227 111.34419131270448 122.81549810941254 H 0.0 **** 0.06
12483 H 270.309095318434 110.57160238056062 124.4158292154589 H 0.0 **** 0.06
12484 H 271.72727990766276 111.39773139487491 123.72465369256807 H 0.0 **** 0.06
12485 H 271.16189357969165 109.86266934965667 123.02318160945615 H 0.0 **** 0.06
12486 C 151.2607336688887 245.45779619062665 67.67755898247117 C 0.0 **** -0.24
12487 H 152.2512643763879 245.84584682982202 67.91744431791733 H 0.0 **** 0.06
12488 H 151.0544654288429 245.6195254635988 66.61924125691723 H 0.0 **** 0.06
12489 H 150.5132679620674 245.97728497093954 68.27635341281456 H 0.0 **** 0.06
12490 H 151.2249506197732 244.39132219215617 67.89679430731573 H 0.0 **** 0.06
12491 C 37.81864544870868 241.64998154133727 156.1854634818152 C 0.0 **** -0.24
12492 H 36.775558725047176 241.41850006275547 155.9711231928526 H 0.0 **** 0.06
12493 H 38.20156943202548 242.33554110033546 155.4280021466828 H 0.0 **** 0.06
12494 H 38.40498634648412 240.7318775778545 156.1742917286462 H 0.0 **** 0.06
12495 H 37.892491650642086 242.1163984703884 157.16790550915925 H 0.0 **** 0.06
12496 C 291.32818800996085 310.3789653651203 157.35633228436603 C 0.0 **** -0.24
12497 H 291.0936743797692 310.5821281164834 156.3112200389179 H 0.0 **** 0.06
12498 H 291.14104855167454 309.3270334298703 157.57271014377164 H 0.0 **** 0.06
12499 H 290.6996515565663 310.9989429187882 157.9966955530781 H 0.0 **** 0.06
12500 H 292.376537104795 310.60850397690166 157.54446932637683 H 0.0 **** 0.06
12501 C 168.39242430450315 200.09061085117315 15.314288542828578 C 0.0 **** -0.24
12502 H 167.51405021854305 200.5720535566689 15.744073647402843 H 0.0 **** 0.06
12503 H 168.77812052870047 200.70199886016064 14.498081781054893 H 0.0 **** 0.06
12504 H 168.11710920053707 199.10688157914535 14.932934813789444 H 0.0 **** 0.06
12505 H 169.15901980359507 199.98090597678544 16.080425948781382 H 0.0 **** 0.06
12506 C 255.51718914960225 23.454496605088423 288.84047192731805 C 0.0 **** -0.24
12507 H 255.73264818311608 22.50160023868318 289.32361711112287 H 0.0 **** 0.06
12508 H 254.70701370436927 23.32234380981123 288.12377622210096 H 0.0 **** 0.06
12509 H 256.40880087589017 23.80837091643673 288.32166092422267 H 0.0 **** 0.06
12510 H 255.2218844436145 24.184585779491726 289.5933731648301 H 0.0 **** 0.06
12511 C 3.753260058437661 207.20011028976978 73.08063394692832 C 0.0 **** -0.24
12512 H 3.897302040384943 206.5909991918639 72.1877890939214 H 0.0 **** 0.06
12513 H 2.9787738895128655 206.75268419399816 73.70347615184679 H 0.0 **** 0.06
12514 H 3.448640649136962 208.20521833708045 72.78785556387146 H 0.0 **** 0.06
12515 H 4.686813946092798 207.25074930115878 73.6400838326804 H 0.0 **** 0.06
12516 C 145.71742981128003 301.75796535150386 305.1970569837088 C 0.0 **** -0.24
12517 H 144.8237848745991 301.1434813058399 305.08794037318586 H 0.0 **** 0.06
12518 H 145.97736296055055 301.8369079078056 306.25325639021 H 0.0 **** 0.06
12519 H 145.5254788277629 302.75229880498716 304.79462295131657 H 0.0 **** 0.06
12520 H 146.54233798755058 301.2992237408741 304.6536032349491 H 0.0 **** 0.06
12521 C 119.0170154271114 193.58071993158154 288.51580000325913 C 0.0 **** -0.24
12522 H 119.79924190077065 192.8461371666486 288.3245638792496 H 0.0 **** 0.06
12523 H 118.60547260724044 193.92735404955567 287.568189512158 H 0.0 **** 0.06
12524 H 119.43841767379965 194.42571735669264 289.0603060619169 H 0.0 **** 0.06
12525 H 118.2271415947124 193.1232516368379 289.11110533308823 H 0.0 **** 0.06
12526 C 294.93715621109436 267.9121198047093 292.1110482524916 C 0.0 **** -0.24
12527 H 295.90030588425 268.3497496513038 291.8464104256411 H 0.0 **** 0.06
12528 H 294.9243772646424 266.8609877551007 291.8237914678813 H 0.0 **** 0.06
12529 H 294.14205203475757 268.44186042129195 291.58857857160626 H 0.0 **** 0.06
12530 H 294.78376925020103 267.9965072195258 293.18766543692806 H 0.0 **** 0.06
12531 C 303.8065237674649 296.9084275786587 111.20504243981227 C 0.0 **** -0.24
12532 H 302.71852008272276 296.8785942610592 111.15407871542516 H 0.0 **** 0.06
12533 H 304.2228377737974 296.6059096764093 110.2435098492875 H 0.0 **** 0.06
12534 H 304.15291756594314 296.2277051896243 111.98252215931075 H 0.0 **** 0.06
12535 H 304.13026481745186 297.9224266341489 111.4387452335148 H 0.0 **** 0.06
12536 C 204.72436660220615 77.76304614433354 205.5076685119776 C 0.0 **** -0.24
12537 H 203.98508517946215 77.4097609187674 204.78885916519846 H 0.0 **** 0.06
12538 H 204.21625241341826 78.24172145224273 206.34514822713663 H 0.0 **** 0.06
12539 H 205.38614019440445 78.48158025240258 205.02473291040184 H 0.0 **** 0.06
12540 H 205.3093373503283 76.91756270204539 205.8723139989109 H 0.0 **** 0.06
12541 C 69.34128656937051 31.960268894184964 292.7682003674793 C 0.0 **** -0.24
12542 H 69.56181408875028 30.897606012693075 292.6618163066922 H 0.0 **** 0.06
12543 H 70.07726339593262 32.418387177797655 293.4287093360719 H 0.0 **** 0.06
12544 H 68.34516567318519 32.08376300680601 293.19174222944406 H 0.0 **** 0.06
12545 H 69.38250559269244 32.43858510054821 291.78955592266607 H 0.0 **** 0.06
12546 C 191.71216394657864 135.65639651065754 92.9369071623801 C 0.0 **** -0.24
12547 H 192.55973917578854 136.17302470774067 92.48670066956498 H 0.0 **** 0.06
12548 H 192.07602082695018 134.84972511891777 93.57346099925235 H 0.0 **** 0.06
12549 H 191.0789969663449 135.2440785373922 92.15178308905763 H 0.0 **** 0.06
12550 H 191.13567879166936 136.36041911524998 93.53743642116467 H 0.0 **** 0.06
12551 C 140.6354428214515 223.89199338094656 313.7011289144091 C 0.0 **** -0.24
12552 H 140.27707399055163 223.71652333565632 314.7157659908587 H 0.0 **** 0.06
12553 H 140.19810340950602 223.1534201224277 313.0290737590044 H 0.0 **** 0.06
12554 H 141.72177783475095 223.80622498150433 313.6804801954327 H 0.0 **** 0.06
12555 H 140.34405413151765 224.89249418912647 313.3820143385361 H 0.0 **** 0.06
12556 C 268.62003226444745 44.4875759573643 235.25340011784652 C 0.0 **** -0.24
12557 H 267.88361130188844 44.07380283140759 235.94134728892533 H 0.0 **** 0.06
12558 H 268.54405449020385 45.57462548114134 235.2495196867809 H 0.0 **** 0.06
12559 H 268.43191512149855 44.10664376931504 234.24896297975272 H 0.0 **** 0.06
12560 H 269.62036454197295 44.19354570116201 235.57200315499287 H 0.0 **** 0.06
12561 C 231.48419916957434 273.7072760406401 16.067177985514434 C 0.0 **** -0.24
12562 H 232.45602600797216 273.260161433728 15.85430130412476 H 0.0 **** 0.06
12563 H 231.38156901473874 273.85751356664446 17.142498446105265 H 0.0 **** 0.06
12564 H 230.69493059531692 273.0428001160929 15.715642477928782 H 0.0 **** 0.06
12565 H 231.4071018538811 274.6670063373433 15.556864250161539 H 0.0 **** 0.06
12566 C 23.574815479016337 36.79224039133297 11.857303985044553 C 0.0 **** -0.24
12567 H 23.842885838249856 36.07804465178344 11.079373992312 H 0.0 **** 0.06
12568 H 24.04959696835016 37.75117233417987 11.648746036394826 H 0.0 **** 0.06
12569 H 23.91291267994842 36.42139935299167 12.82434821982092 H 0.0 **** 0.06
12570 H 22.491951675204945 36.918789198932984 11.875681564637063 H 0.0 **** 0.06
12571 C 265.34725474725536 277.15491929955374 171.47040321376602 C 0.0 **** -0.24
12572 H 265.179905155397 277.56882796187926 172.46550878096343 H 0.0 **** 0.06
12573 H 264.45489381445475 277.30331858910876 170.86143690006656 H 0.0 **** 0.06
12574 H 265.55982530219194 276.0891536602154 171.55147545887763 H 0.0 **** 0.06
12575 H 266.193702997872 277.660251044529 171.00519408103804 H 0.0 **** 0.06
12576 C 272.9049364558682 291.8696385994973 278.9310313170198 C 0.0 **** -0.24
12577 H 272.85158356632536 290.8573358803495 278.5301285545789 H 0.0 **** 0.06
12578 H 272.65713588007975 292.58509292611825 278.1466797805052 H 0.0 **** 0.06
12579 H 273.9146653130715 292.0633580645632 279.2947506586013 H 0.0 **** 0.06
12580 H 272.1973146233313 291.97183878343895 279.75367450432407 H 0.0 **** 0.06
12581 C 8.987412483394763 229.17523485847272 74.70716857721385 C 0.0 **** -0.24
12582 H 7.901410771375396 229.10369852291547 74.65013189926151 H 0.0 **** 0.06
12583 H 9.29360991209613 230.20726148357875 74.53826764073926 H 0.0 **** 0.06
12584 H 9.433661361765957 228.5346658075668 73.94638964730996 H 0.0 **** 0.06
12585 H 9.321080048546818 228.85308065596502 75.69384885886694 H 0.0 **** 0.06
12586 C 32.36527024377915 56.91305197915082 288.947575493981 C 0.0 **** -0.24
12587 H 31.701525081641677 57.65264412080859 289.3967003974591 H 0.0 **** 0.06
12588 H 31.838053844630423 56.388211103873175 288.15162557792803 H 0.0 **** 0.06
12589 H 32.67978110984134 56.199195081651055 289.7087072787182 H 0.0 **** 0.06
12590 H 33.24048932484203 57.414278048540524 288.53609483772954 H 0.0 **** 0.06
12591 C 188.27161100725505 47.62743346482995 77.25131363555957 C 0.0 **** -0.24
12592 H 187.28183820436573 47.90323858144154 76.88781716362524 H 0.0 **** 0.06
12593 H 188.42659611801963 46.55809717174003 77.10642450752209 H 0.0 **** 0.06
12594 H 188.34880743187705 47.86571215315482 78.31224922721358 H 0.0 **** 0.06
12595 H 189.02920227475755 48.182685952983434 76.69876364387741 H 0.0 **** 0.06
12596 C 245.79619133191397 144.38092723889264 107.74949226279332 C 0.0 **** -0.24
12597 H 244.8014504136413 144.11594560729785 108.10882302088243 H 0.0 **** 0.06
12598 H 245.7135631308796 145.16869780872977 107.0005814133452 H 0.0 **** 0.06
12599 H 246.2661310359657 143.50347113705786 107.30399386888112 H 0.0 **** 0.06
12600 H 246.4023812158531 144.73348749851596 108.58441408026715 H 0.0 **** 0.06
12601 C 141.50712347322172 197.78955068768425 230.63702439794287 C 0.0 **** -0.24
12602 H 142.3659061611323 197.92620216955976 231.29492258267987 H 0.0 **** 0.06
12603 H 141.63652040767684 196.87659526833448 230.05579020641315 H 0.0 **** 0.06
12604 H 141.42822895544305 198.64220698325227 229.96118990993887 H 0.0 **** 0.06
12605 H 140.59935271402705 197.71476078580588 231.2356796150255 H 0.0 **** 0.06
12606 C 287.6157565291335 191.2213118528128 136.8423951927594 C 0.0 **** -0.24
12607 H 287.1178071993353 191.74309381807473 136.0249477038656 H 0.0 **** 0.06
12608 H 288.4076872549567 190.58880956697584 136.43992912119876 H 0.0 **** 0.06
12609 H 286.89181336966334 190.60325552049545 137.37351572730233 H 0.0 **** 0.06
12610 H 288.04518434957066 191.9493920329558 137.53007923734563 H 0.0 **** 0.06
12611 C 153.25002697677706 74.93916764673332 78.08879062153437 C 0.0 **** -0.24
12612 H 153.34449465623567 74.00108453803722 77.54154635249233 H 0.0 **** 0.06
12613 H 154.14625804114638 75.10267359736795 78.68795173272389 H 0.0 **** 0.06
12614 H 152.37917534253978 74.8923626209455 78.74123683567711 H 0.0 **** 0.06
12615 H 153.13072753594025 75.761293185652 77.38215875295714 H 0.0 **** 0.06
12616 C 29.68744315821135 252.20525682002318 192.4625220887827 C 0.0 **** -0.24
12617 H 28.8947943596107 252.9530001478599 192.48913313487623 H 0.0 **** 0.06
12618 H 29.874185610019737 251.9111542822724 191.42955291923465 H 0.0 **** 0.06
12619 H 29.382077106336823 251.33291466293645 193.03977167286092 H 0.0 **** 0.06
12620 H 30.59770781192134 252.62493199590645 192.8918207738085 H 0.0 **** 0.06
12621 C 0.5466279576908164 246.0734872037927 232.5087863857215 C 0.0 **** -0.24
12622 H -0.3371322881739047 246.11384121026092 233.14628362984047 H 0.0 **** 0.06
12623 H 0.8622564859153528 247.08733949397026 232.26192910426647 H 0.0 **** 0.06
12624 H 0.3085603538661701 245.53333606308883 231.59205582855515 H 0.0 **** 0.06
12625 H 1.3506680926727768 245.55967701360885 233.03434979143026 H 0.0 **** 0.06
12626 C 22.07978698738873 252.177296827159 139.98900615010496 C 0.0 **** -0.24
12627 H 21.038496191835634 251.86960923493714 139.90119289269305 H 0.0 **** 0.06
12628 H 22.449216295577287 251.92852596668 140.98443841818658 H 0.0 **** 0.06
12629 H 22.1551479499509 253.2529405897977 139.83120384069977 H 0.0 **** 0.06
12630 H 22.676971896395685 251.6575776903274 139.2396860891639 H 0.0 **** 0.06
12631 C 284.8124558350619 45.730892203008125 59.371949608256784 C 0.0 **** -0.24
12632 H 285.5323178024954 46.42385684768854 59.80640684980975 H 0.0 **** 0.06
12633 H 284.6255466230039 46.00529698918578 58.33328637409545 H 0.0 **** 0.06
12634 H 283.87985788912056 45.77690868053651 59.93327117360192 H 0.0 **** 0.06
12635 H 285.21210102562753 44.71750629462167 59.41483403551999 H 0.0 **** 0.06
12636 C 134.8195287540303 138.94583850091507 235.64087886910715 C 0.0 **** -0.24
12637 H 134.3412109368958 139.52572552464238 234.85181457922937 H 0.0 **** 0.06
12638 H 135.77412820969258 138.56110943766865 235.2811584503598 H 0.0 **** 0.06
12639 H 134.17454424601726 138.1128792692901 235.92075607979484 H 0.0 **** 0.06
12640 H 134.98848754453323 139.58248011501107 236.50852552864404 H 0.0 **** 0.06
12641 C 81.25607395286244 309.6006748411677 192.61645253299895 C 0.0 **** -0.24
12642 H 81.87864323229661 310.31874127133426 193.15048852942851 H 0.0 **** 0.06
12643 H 81.18861618911691 308.6790570478335 193.19442696368776 H 0.0 **** 0.06
12644 H 81.69977332456804 309.38811867297045 191.64435527038205 H 0.0 **** 0.06
12645 H 80.25908281220069 310.0173704426414 192.4776981255431 H 0.0 **** 0.06
12646 C 259.29480437085437 311.0599075857953 101.5898662987243 C 0.0 **** -0.24
12647 H 259.0741647836037 311.32920137435065 102.62246950183683 H 0.0 **** 0.06
12648 H 258.7783821194367 311.744925601761 100.91676546671275 H 0.0 **** 0.06
12649 H 258.9568377323032 310.04081067825297 101.40066958539461 H 0.0 **** 0.06
12650 H 260.3693374298244 311.123415240773 101.41991092121162 H 0.0 **** 0.06
12651 C 33.22770020602019 260.346102176581 144.5502121861632 C 0.0 **** -0.24
12652 H 32.907072687178726 259.8336042870359 143.64314479182192 H 0.0 **** 0.06
12653 H 34.296427782862736 260.55196340204674 144.49296822508433 H 0.0 **** 0.06
12654 H 33.02500028050616 259.7131779554685 145.41512838322078 H 0.0 **** 0.06
12655 H 32.68071638473003 261.2834536420783 144.650876373649 H 0.0 **** 0.06
12656 C 232.07763161916324 172.99971716101538 34.514427198185956 C 0.0 **** -0.24
12657 H 232.50741300885142 173.38401942564514 33.58975965073819 H 0.0 **** 0.06
12658 H 231.0001792950328 173.16492110135835 34.51168900226645 H 0.0 **** 0.06
12659 H 232.5222169308397 173.5170186071112 35.364089754917416 H 0.0 **** 0.06
12660 H 232.28134203789025 171.93136146721628 34.59365807303709 H 0.0 **** 0.06
12661 C 111.42734652709663 64.87985454154915 186.2517388274643 C 0.0 **** -0.24
12662 H 111.4014095962113 63.880719259693706 186.68724579227234 H 0.0 **** 0.06
12663 H 112.18623469623208 64.91516693074945 185.4688702940647 H 0.0 **** 0.06
12664 H 111.66813673128371 65.6074043251094 187.02632628947975 H 0.0 **** 0.06
12665 H 110.45199193236303 65.1136618710915 185.82394927510722 H 0.0 **** 0.06
12666 C 275.8471912283392 172.51964764427748 218.7903351141345 C 0.0 **** -0.24
12667 H 275.04877018672124 172.4244405829295 219.52738044059 H 0.0 **** 0.06
12668 H 276.7694561284276 172.81522072768496 219.29018844758488 H 0.0 **** 0.06
12669 H 275.57328581253495 173.2755359452703 218.05539018932728 H 0.0 **** 0.06
12670 H 275.9947535347113 171.5626746960525 218.29018064764296 H 0.0 **** 0.06
12671 C 120.05839222341802 89.67473833864773 261.28686140473246 C 0.0 **** -0.24
12672 H 120.00449276673231 89.32050354581125 262.31570682785804 H 0.0 **** 0.06
12673 H 121.08066964977127 89.57426023057366 260.9213503020247 H 0.0 **** 0.06
12674 H 119.7580049562784 90.72136616770226 261.2458489222823 H 0.0 **** 0.06
12675 H 119.39004660734088 89.08023328620627 260.6634600629346 H 0.0 **** 0.06
12676 C 47.53258989668521 118.71851534141547 256.914174114536 C 0.0 **** -0.24
12677 H 47.69048467838459 119.55043456607308 257.6006484346974 H 0.0 **** 0.06
12678 H 46.82791244141612 119.01755920079302 256.1373872647714 H 0.0 **** 0.06
12679 H 47.13015350508792 117.86684421071743 257.4615090944751 H 0.0 **** 0.06
12680 H 48.481906064409344 118.44049671822779 256.45561243730475 H 0.0 **** 0.06
12681 C 63.29914599919604 304.73123707504413 244.53793398538372 C 0.0 **** -0.24
12682 H 62.93648775112317 304.2445232396427 245.44314389815904 H 0.0 **** 0.06
12683 H 62.47082906372469 305.2367597440643 244.04050033155443 H 0.0 **** 0.06
12684 H 63.72388199280536 303.98346628026104 243.8677776404124 H 0.0 **** 0.06
12685 H 64.06498949559506 305.46133807846667 244.80105300196425 H 0.0 **** 0.06
12686 C 111.45224137098418 44.15263670082098 2.525541820407625 C 0.0 **** -0.24
12687 H 111.50688244455282 43.73225474949058 3.529512794113387 H 0.0 **** 0.06
12688 H 110.6902217915665 43.62354318550385 1.952468904684551 H 0.0 **** 0.06
12689 H 112.4182281453997 44.04554989225437 2.0337071837581107 H 0.0 **** 0.06
12690 H 111.19118705227618 45.209423746332504 2.588200710760887 H 0.0 **** 0.06
12691 C 243.09951127880265 190.99926131926384 128.64675699425658 C 0.0 **** -0.24
12692 H 242.70698788636025 190.23240319673533 129.31479693144874 H 0.0 **** 0.06
12693 H 242.42555904141693 191.8562298434091 128.6427968642901 H 0.0 **** 0.06
12694 H 243.1801356901907 190.59497011872082 127.63819183764636 H 0.0 **** 0.06
12695 H 244.08420891082153 191.31283830478486 128.99276045620363 H 0.0 **** 0.06
12696 C 43.95692138434913 179.6544733069976 101.76113945335206 C 0.0 **** -0.24
12697 H 43.55608190423504 180.4749267251779 102.3558589225471 H 0.0 **** 0.06
12698 H 44.12483906399052 179.99561737956662 100.7392667960732 H 0.0 **** 0.06
12699 H 43.2455094721181 178.82861646945992 101.7570254232561 H 0.0 **** 0.06
12700 H 44.899393169312134 179.31994074861672 102.19213509376641 H 0.0 **** 0.06
12701 C 205.52133371365585 49.562658830338364 50.158269684924136 C 0.0 **** -0.24
12702 H 206.34402881395732 50.1000325148774 50.63107794388594 H 0.0 **** 0.06
12703 H 204.98064826904516 48.98980525979164 50.911263963745256 H 0.0 **** 0.06
12704 H 205.91882570060835 48.885497195340804 49.40143509537458 H 0.0 **** 0.06
12705 H 204.84423562386246 50.275939547539224 49.687954740794225 H 0.0 **** 0.06
12706 C 92.385862793124 237.37349948051863 303.6167586668628 C 0.0 **** -0.24
12707 H 92.32417130892077 238.38727810660367 303.21910502973503 H 0.0 **** 0.06
12708 H 91.54583573564528 236.7866986162919 303.2446059561641 H 0.0 **** 0.06
12709 H 92.35097468674658 237.40764538756974 304.705330310676 H 0.0 **** 0.06
12710 H 93.32106891779088 236.91483181621845 303.2957558199548 H 0.0 **** 0.06
12711 C 294.203666907798 127.07424111155265 306.7496650727735 C 0.0 **** -0.24
12712 H 294.17400376515263 126.93826589107005 305.66904109428293 H 0.0 **** 0.06
12713 H 293.2424226131025 127.45644085519325 307.0940879443764 H 0.0 **** 0.06
12714 H 294.9906814043961 127.78395421589937 307.0056940633272 H 0.0 **** 0.06
12715 H 294.4073428427598 126.11700118421396 307.23095832118804 H 0.0 **** 0.06
12716 C 312.22860203491246 216.62784060153086 218.58056189413855 C 0.0 **** -0.24
12717 H 312.274807280643 217.34233056069615 217.75813042124148 H 0.0 **** 0.06
12718 H 312.4346382363418 217.14235926007856 219.51973333146813 H 0.0 **** 0.06
12719 H 312.97168042429456 215.8463266907824 218.42306312325948 H 0.0 **** 0.06
12720 H 311.2347879174087 216.18198466333234 218.61930891341063 H 0.0 **** 0.06
12721 C 116.38865697256634 161.0408411162337 154.71910699613107 C 0.0 **** -0.24
12722 H 117.07635662917053 161.0649653564671 155.56465211904776 H 0.0 **** 0.06
12723 H 115.37833612216605 161.25915745571103 155.06603798079095 H 0.0 **** 0.06
12724 H 116.40992376849331 160.05115724667553 154.26218805981358 H 0.0 **** 0.06
12725 H 116.68971083590063 161.7867500384092 153.98390920060166 H 0.0 **** 0.06
12726 C 239.69250901268722 266.55031855109905 79.12406390018268 C 0.0 **** -0.24
12727 H 238.95042483277308 266.27055612073195 78.3759767364011 H 0.0 **** 0.06
12728 H 239.19408860712008 267.0178989281525 79.9728730882095 H 0.0 **** 0.06
12729 H 240.40140648064158 267.25259031699414 78.68639154215083 H 0.0 **** 0.06
12730 H 240.22375451756847 265.6597626513586 79.45938576249699 H 0.0 **** 0.06
12731 C 133.29567498780096 148.55684688561217 108.76186770047991 C 0.0 **** -0.24
12732 H 132.88108493621797 148.14337791243256 107.84184169398225 H 0.0 **** 0.06
12733 H 132.48293076181756 148.8253379304923 109.43710375850782 H 0.0 **** 0.06
12734 H 133.88395206957594 149.44420067780595 108.52785985224239 H 0.0 **** 0.06
12735 H 133.93449152305556 147.81323819389843 109.23794111494527 H 0.0 **** 0.06
12736 C 29.157419370588855 92.63394817419393 157.2260135951629 C 0.0 **** -0.24
12737 H 29.613822005433633 91.64472863536369 157.25136485031874 H 0.0 **** 0.06
12738 H 28.8429545166035 92.91371375609307 158.23134409981338 H 0.0 **** 0.06
12739 H 28.290879615109873 92.6178185099657 156.56488120547067 H 0.0 **** 0.06
12740 H 29.882021345208443 93.3595317953532 156.85646422504874 H 0.0 **** 0.06
12741 C 102.65149001130814 72.14272311767655 39.51368750133349 C 0.0 **** -0.24
12742 H 102.19463996566967 71.18363731019167 39.75628963759692 H 0.0 **** 0.06
12743 H 101.87116652405572 72.89339913701136 39.38337585556229 H 0.0 **** 0.06
12744 H 103.22398655019953 72.04933107418938 38.59176777516825 H 0.0 **** 0.06
12745 H 103.31463429137233 72.44439774019725 40.324939890834 H 0.0 **** 0.06
12746 C 152.2716575228207 37.04836138827804 84.40297762220894 C 0.0 **** -0.24
12747 H 152.79109844905588 36.154607646284404 84.74813370453498 H 0.0 **** 0.06
12748 H 152.73394315419205 37.404106509690536 83.48172100351073 H 0.0 **** 0.06
12749 H 152.3363275066248 37.823272534239635 85.16579401692502 H 0.0 **** 0.06
12750 H 151.22537160164984 36.80979074695631 84.2158088114636 H 0.0 **** 0.06
12751 C 297.1459616991459 107.13400421993128 304.52161904819576 C 0.0 **** -0.24
12752 H 297.70452310973326 106.96790148518949 305.4427218555116 H 0.0 **** 0.06
12753 H 296.805536510357 108.16989422668519 304.4848910668879 H 0.0 **** 0.06
12754 H 296.284843593995 106.4666478276298 304.49483468068183 H 0.0 **** 0.06
12755 H 297.7898769794675 106.9330084255788 303.6654671037363 H 0.0 **** 0.06
12756 C 206.3325755652702 40.99638119271026 83.02964399559741 C 0.0 **** -0.24
12757 H 207.13741826491702 40.26235861273199 83.06566384775476 H 0.0 **** 0.06
12758 H 205.70370310359823 40.80356766517798 82.1597665754486 H 0.0 **** 0.06
12759 H 206.75749187079066 41.997606740398396 82.95661737738462 H 0.0 **** 0.06
12760 H 205.73126568845964 40.92131543711679 83.93592536270344 H 0.0 **** 0.06
12761 C 169.67247769157717 44.10692827666779 47.73197593111465 C 0.0 **** -0.24
12762 H 168.9368364628004 43.96414374778732 46.939991768461596 H 0.0 **** 0.06
12763 H 169.478232799151 45.050553121372985 48.24223020697676 H 0.0 **** 0.06
12764 H 170.67279266345497 44.126108525261515 47.29992336130039 H 0.0 **** 0.06
12765 H 169.60114478436424 43.28651731264199 48.4459323831957 H 0.0 **** 0.06
12766 C 15.081594764769022 227.35394300664657 154.53855700459388 C 0.0 **** -0.24
12767 H 14.818583362432392 226.31469570173482 154.3422170191837 H 0.0 **** 0.06
12768 H 15.233935392070038 227.87416958191844 153.59166577316853 H 0.0 **** 0.06
12769 H 15.998282006784024 227.39225301591438 155.12679181494707 H 0.0 **** 0.06
12770 H 14.274573972556695 227.8350052634657 155.0913471064801 H 0.0 **** 0.06
12771 C 280.2547568130367 151.08206029207759 146.7912403011595 C 0.0 **** -0.24
12772 H 280.2480526362586 150.12379446714425 147.3112124305692 H 0.0 **** 0.06
12773 H 279.49224723872595 151.0771795715462 146.01107385314506 H 0.0 **** 0.06
12774 H 281.23401779259746 151.24351626767435 146.34100675052198 H 0.0 **** 0.06
12775 H 280.0445129460304 151.8814920028055 147.50074139335678 H 0.0 **** 0.06
12776 C 169.78043436045806 268.5033504208739 286.30886858155014 C 0.0 **** -0.24
12777 H 170.53348392836233 269.1942113258875 285.9303954570796 H 0.0 **** 0.06
12778 H 169.16718909915386 269.0087987366883 287.05604232786845 H 0.0 **** 0.06
12779 H 170.27184520427795 267.64321874037773 286.7620398717907 H 0.0 **** 0.06
12780 H 169.14865419684327 268.1693748957174 285.4860845750177 H 0.0 **** 0.06
12781 C 10.802414426678922 266.6928249259875 249.02943158256204 C 0.0 **** -0.24
12782 H 9.87380184864135 266.12968123939805 249.11821905156503 H 0.0 **** 0.06
12783 H 10.583371058021115 267.76058911568975 249.05652385218934 H 0.0 **** 0.06
12784 H 11.287974790606881 266.4455747757357 248.08487621067835 H 0.0 **** 0.06
12785 H 11.463966651533013 266.4361733791669 249.85701722083368 H 0.0 **** 0.06
12786 C 139.8102247197675 92.73867036643833 182.22371395221626 C 0.0 **** -0.24
12787 H 140.07538753295393 92.9414996191897 183.26093298547005 H 0.0 **** 0.06
12788 H 139.10998517012803 91.90435610520657 182.1842343879983 H 0.0 **** 0.06
12789 H 140.70910939238348 92.48535526297138 181.66232447056245 H 0.0 **** 0.06
12790 H 139.34764753897633 93.62415999085266 181.78746307476518 H 0.0 **** 0.06
12791 C 125.68015965017511 209.21603324980407 3.45562495636716 C 0.0 **** -0.24
12792 H 124.87401745820176 208.73890412825443 2.898369254376675 H 0.0 **** 0.06
12793 H 126.43550152384404 209.58220910938377 2.75986116998871 H 0.0 **** 0.06
12794 H 126.13095012956353 208.49221179449614 4.134790470648426 H 0.0 **** 0.06
12795 H 125.27904347473233 210.05157582015784 4.029856425254181 H 0.0 **** 0.06
12796 C 258.18470811131414 224.27354105100363 28.65926098539981 C 0.0 **** -0.24
12797 H 257.41852826806485 223.95936839443112 27.95104750346161 H 0.0 **** 0.06
12798 H 258.9626576942458 224.82524391537015 28.13179084930283 H 0.0 **** 0.06
12799 H 258.62060605996317 223.3956331924949 29.135218038608883 H 0.0 **** 0.06
12800 H 257.73568084545406 224.91369179837 29.41867120734267 H 0.0 **** 0.06
12801 C 134.9950187539992 113.10497385990382 28.12974500118321 C 0.0 **** -0.24
12802 H 135.06085800766232 112.55703859643819 27.190767109368977 H 0.0 **** 0.06
12803 H 134.67086490282728 114.1269363846367 27.93176209445764 H 0.0 **** 0.06
12804 H 135.97366959757653 113.1209233577109 28.61086296598816 H 0.0 **** 0.06
12805 H 134.27512872143782 112.61592029819533 28.786561800592693 H 0.0 **** 0.06
12806 C 240.490367068673 133.10233167086722 276.52740849654623 C 0.0 **** -0.24
12807 H 239.71369064559485 132.77366609597098 277.21898859319725 H 0.0 **** 0.06
12808 H 240.85129925181536 134.08578433153014 276.82810796829136 H 0.0 **** 0.06
12809 H 240.07929844425303 133.1576862565864 275.51936047871743 H 0.0 **** 0.06
12810 H 241.31525953376547 132.3908832576408 276.54532276463914 H 0.0 **** 0.06
12811 C 273.7697656992559 100.11307653208081 190.39052777264067 C 0.0 **** -0.24
12812 H 273.710847600923 99.62645196938035 189.4168750915573 H 0.0 **** 0.06
12813 H 272.7650547035353 100.23822800964038 190.79531447763827 H 0.0 **** 0.06
12814 H 274.2414778579098 101.0894088943881 190.27968956952355 H 0.0 **** 0.06
12815 H 274.3601382738284 99.49717864314806 191.0686393871659 H 0.0 **** 0.06
12816 C 197.2932516310176 15.574585711895082 187.93060174929832 C 0.0 **** -0.24
12817 H 197.7171637864942 14.956650158706395 188.72131628723866 H 0.0 **** 0.06
12818 H 196.91115800347995 14.934321437120119 187.13454492022873 H 0.0 **** 0.06
12819 H 198.0645913418357 16.23175948314406 187.5300121447276 H 0.0 **** 0.06
12820 H 196.47887128940368 16.175115951898064 188.3370441735491 H 0.0 **** 0.06
12821 C 254.1466180708804 59.66088329392181 299.5957709962737 C 0.0 **** -0.24
12822 H 254.77067950994194 59.72376173609794 300.4860742942957 H 0.0 **** 0.06
12823 H 253.16373961650618 59.27593330724204 299.86718728304925 H 0.0 **** 0.06
12824 H 254.61155240866492 58.99125600841978 298.87254301849345 H 0.0 **** 0.06
12825 H 254.03973915396878 60.65296461374447 299.1561508129608 H 0.0 **** 0.06
12826 C 118.48205168966652 136.74580901208336 99.649326411235 C 0.0 **** -0.24
12827 H 117.8509535143682 135.86067702373765 99.73805528534302 H 0.0 **** 0.06
12828 H 117.98000189161618 137.59648454461274 100.11131395784835 H 0.0 **** 0.06
12829 H 118.66315488400161 136.95845249669338 98.59673402964702 H 0.0 **** 0.06
12830 H 119.4314364239261 136.5672288348092 100.15314392964942 H 0.0 **** 0.06
12831 C 122.74788769729975 258.8344777744803 45.83327806753587 C 0.0 **** -0.24
12832 H 123.2926874586677 257.89969306736134 45.9621583119675 H 0.0 **** 0.06
12833 H 121.75696100441783 258.62372398776023 45.42800594673622 H 0.0 **** 0.06
12834 H 123.29250153365865 259.48126939553697 45.14485325567509 H 0.0 **** 0.06
12835 H 122.64719929544623 259.3330117238739 46.797042091730475 H 0.0 **** 0.06
12836 C 204.79191211004058 139.14765492991043 55.111827733526155 C 0.0 **** -0.24
12837 H 203.71154100752136 138.99960791379888 55.11901916012704 H 0.0 **** 0.06
12838 H 205.27734555133048 138.2560115021874 54.71668128470361 H 0.0 **** 0.06
12839 H 205.140179368073 139.3310781182391 56.127947902551 H 0.0 **** 0.06
12840 H 205.03616057249945 140.00425751556492 54.483810179983834 H 0.0 **** 0.06
12841 C 18.74195315067233 102.24219579931747 35.98312986763264 C 0.0 **** -0.24
12842 H 18.51780762663425 103.28917512547355 35.77619405712338 H 0.0 **** 0.06
12843 H 19.699498348606298 102.17038725834178 36.49802507355571 H 0.0 **** 0.06
12844 H 18.79058463387915 101.6894886443668 35.04521722400716 H 0.0 **** 0.06
12845 H 17.957699569242493 101.82159802509284 36.61147704579264 H 0.0 **** 0.06
12846 C 282.6612699023307 221.381106337824 128.1963261307549 C 0.0 **** -0.24
12847 H 282.1218001586017 220.43945289189156 128.0928779078247 H 0.0 **** 0.06
12848 H 282.9556221758573 221.74125092101235 127.2110723748257 H 0.0 **** 0.06
12849 H 283.550710968941 221.22377959527626 128.80724530662553 H 0.0 **** 0.06
12850 H 282.01712790715317 222.11799015371156 128.67637996426762 H 0.0 **** 0.06
12851 C 93.27978954440874 15.479717340660102 39.130660866108116 C 0.0 **** -0.24
12852 H 92.51089039776093 15.106978518430026 38.454998808471345 H 0.0 **** 0.06
12853 H 94.21431871755675 14.948586678021513 38.945939994863096 H 0.0 **** 0.06
12854 H 92.9677645172286 15.317842426811012 40.161805976585356 H 0.0 **** 0.06
12855 H 93.42810310351564 16.545588398761026 38.958381081804276 H 0.0 **** 0.06
12856 C 227.8664648216428 26.409701604257492 293.9419312828767 C 0.0 **** -0.24
12857 H 227.95198610401292 27.493290096852434 294.01638552419666 H 0.0 **** 0.06
12858 H 228.35616181493083 25.946341728334687 294.7991575282016 H 0.0 **** 0.06
12859 H 228.3441631251161 26.069667791097856 293.02388516199517 H 0.0 **** 0.06
12860 H 226.81311499186967 26.128829803619197 293.92946052262187 H 0.0 **** 0.06
12861 C 220.5627220338413 76.15910205449708 32.38898622000693 C 0.0 **** -0.24
12862 H 221.48422086669726 76.73681492444351 32.45913669878627 H 0.0 **** 0.06
12863 H 220.6960092633522 75.20089394166163 32.892551591342794 H 0.0 **** 0.06
12864 H 220.32140023277725 75.9870788721937 31.339869846722763 H 0.0 **** 0.06
12865 H 219.75107167984947 76.71052382050243 32.86367463264412 H 0.0 **** 0.06
12866 C 137.31410450633228 155.40118336115995 184.5661060277876 C 0.0 **** -0.24
12867 H 137.81603388254337 156.210797821367 184.03807888019873 H 0.0 **** 0.06
12868 H 137.93704905682807 155.06596356814669 185.3956186131149 H 0.0 **** 0.06
12869 H 137.14396884100518 154.57123999477466 183.8803260239485 H 0.0 **** 0.06
12870 H 136.3571556104303 155.75681767815945 184.9507258431998 H 0.0 **** 0.06
12871 C 153.18801814981555 28.543387507336945 67.54305037448012 C 0.0 **** -0.24
12872 H 153.41362860003545 29.433713297958917 68.12948985003976 H 0.0 **** 0.06
12873 H 152.77759259955286 27.77301168249116 68.19549447470229 H 0.0 **** 0.06
12874 H 154.1009473447242 28.175449040197975 67.07482295194669 H 0.0 **** 0.06
12875 H 152.4598325653543 28.792176019875 66.77056258552315 H 0.0 **** 0.06
12876 C 36.83153716275905 283.52455055308974 294.8134644111258 C 0.0 **** -0.24
12877 H 37.17086752215806 284.07500673287586 293.9359911914293 H 0.0 **** 0.06
12878 H 37.541711278246396 282.7287663623563 295.03849018321637 H 0.0 **** 0.06
12879 H 35.85177619049011 283.09187871968777 294.61428141505843 H 0.0 **** 0.06
12880 H 36.7628970860753 284.2026715974542 295.6642186295019 H 0.0 **** 0.06
12881 C 243.43099311846976 84.22701280243231 207.5425774984746 C 0.0 **** -0.24
12882 H 244.36776489270525 84.38893451963474 207.01006426205868 H 0.0 **** 0.06
12883 H 243.1341360930686 83.18250692901341 207.44405470897615 H 0.0 **** 0.06
12884 H 242.65678679045436 84.86611514632608 207.11847479409062 H 0.0 **** 0.06
12885 H 243.56516497369245 84.46914754595605 208.59593547209693 H 0.0 **** 0.06
12886 C 14.663627449966526 93.65288121061684 76.60278317273878 C 0.0 **** -0.24
12887 H 15.108914873357406 94.62255951745473 76.82951969417354 H 0.0 **** 0.06
12888 H 14.17559696344388 93.69657557903648 75.62902992004786 H 0.0 **** 0.06
12889 H 13.928627846687746 93.40441273511644 77.36813756654558 H 0.0 **** 0.06
12890 H 15.442970151800736 92.89107205023234 76.58537323669086 H 0.0 **** 0.06
12891 C 148.67473134169077 221.3255959153846 239.4726417273819 C 0.0 **** -0.24
12892 H 148.15604165163487 221.46533249974655 240.42043761092853 H 0.0 **** 0.06
12893 H 147.9440860868598 221.24675399652506 238.66680066403222 H 0.0 **** 0.06
12894 H 149.26869700633154 220.41321776971813 239.51479921241 H 0.0 **** 0.06
12895 H 149.32998106005044 222.1771487002146 239.28753901500738 H 0.0 **** 0.06
12896 C 82.7749714306394 134.76990213519122 261.4155925039542 C 0.0 **** -0.24
12897 H 83.09501868854417 135.49116432209598 262.1665605150142 H 0.0 **** 0.06
12898 H 83.5467114976519 134.00991671661814 261.28850675373513 H 0.0 **** 0.06
12899 H 82.61006513422808 135.28167341676985 260.4670697462754 H 0.0 **** 0.06
12900 H 81.84817160001504 134.29617820938583 261.7381030662408 H 0.0 **** 0.06
12901 C 159.86825153825055 118.26980075866268 313.393690443915 C 0.0 **** -0.24
12902 H 159.9674098991091 117.47443970771309 312.654683156995 H 0.0 **** 0.06
12903 H 159.0045442715707 118.06887549142854 314.0284542974414 H 0.0 **** 0.06
12904 H 159.73131319786546 119.22337622791116 312.8853076568766 H 0.0 **** 0.06
12905 H 160.76826256527482 118.30954721215366 314.0061344937993 H 0.0 **** 0.06
12906 C 302.08345344875676 153.3440381032795 285.2247345423632 C 0.0 **** -0.24
12907 H 302.36323956880744 153.03445805835526 286.2319288010913 H 0.0 **** 0.06
12908 H 301.41697247620874 152.60008656303665 284.78792386189286 H 0.0 **** 0.06
12909 H 302.97999261524086 153.43472817660074 284.6107694070621 H 0.0 **** 0.06
12910 H 301.57500374251265 154.30703139811322 285.2700573787301 H 0.0 **** 0.06
12911 C 251.92795032976048 305.8829060455994 253.99109540989105 C 0.0 **** -0.24
12912 H 251.57843986477627 305.8279414431849 255.02181878446288 H 0.0 **** 0.06
12913 H 252.60173020542496 305.048678598661 253.79159703114124 H 0.0 **** 0.06
12914 H 252.45689308247708 306.82334971870887 253.8368177005143 H 0.0 **** 0.06
12915 H 251.074222387965 305.83098889546585 253.315284370026 H 0.0 **** 0.06
12916 C 83.88040616785403 255.359576842012 114.64922457758135 C 0.0 **** -0.24
12917 H 83.83154658952094 256.4487678008674 114.6165113644629 H 0.0 **** 0.06
12918 H 83.23309853842531 254.94423677351517 113.87697733134118 H 0.0 **** 0.06
12919 H 83.55069483288679 255.01113630571535 115.62806622916304 H 0.0 **** 0.06
12920 H 84.9075002242059 255.03769498199304 114.47561230814063 H 0.0 **** 0.06
12921 C 73.1594953603396 101.69086467026611 261.5039071492704 C 0.0 **** -0.24
12922 H 73.58702172784177 102.47926250116294 262.1236663096222 H 0.0 **** 0.06
12923 H 72.14755408229496 101.47006702313334 261.8453900983867 H 0.0 **** 0.06
12924 H 73.77437772997894 100.79457396935902 261.5830273047386 H 0.0 **** 0.06
12925 H 73.12974108994072 102.02080565041081 260.4661769452546 H 0.0 **** 0.06
12926 C 10.482574533869439 284.5562490067551 304.8550850163729 C 0.0 **** -0.24
12927 H 11.038001236941824 285.07000212866274 305.63907624884735 H 0.0 **** 0.06
12928 H 10.899506221940399 283.5604547377369 304.7070408072658 H 0.0 **** 0.06
12929 H 10.555689905325892 285.1233735966205 303.9270682102921 H 0.0 **** 0.06
12930 H 9.436034120008344 284.4720422027357 305.1474610157093 H 0.0 **** 0.06
12931 C 213.52456344724493 99.67408688973822 54.75041516809438 C 0.0 **** -0.24
12932 H 212.76941576233966 98.89140021612178 54.684310017941954 H 0.0 **** 0.06
12933 H 214.10653926294628 99.69730042448083 53.82841699176953 H 0.0 **** 0.06
12934 H 214.1859556545368 99.47095748159671 55.59259872352999 H 0.0 **** 0.06
12935 H 213.03638908252623 100.63784940994302 54.89714262574296 H 0.0 **** 0.06
12936 C 220.861809375757 121.70790863511598 106.26010134083808 C 0.0 **** -0.24
12937 H 221.13086005865893 121.57239743067723 107.30765983255517 H 0.0 **** 0.06
12938 H 220.3311775948036 120.82411124220266 105.90442250242577 H 0.0 **** 0.06
12939 H 221.76590120582316 121.8519717214455 105.66908599678831 H 0.0 **** 0.06
12940 H 220.21909623888192 122.58213333009834 106.16019462016399 H 0.0 **** 0.06
12941 C 110.38694637874681 16.99299582312875 13.147877125916807 C 0.0 **** -0.24
12942 H 109.31544377386632 16.817953855673068 13.057313213911485 H 0.0 **** 0.06
12943 H 110.85646181299873 16.883183836513922 12.170164010532247 H 0.0 **** 0.06
12944 H 110.81539120334719 16.269364893192574 13.84103198416183 H 0.0 **** 0.06
12945 H 110.55996084613355 18.002314393375684 13.523161516809637 H 0.0 **** 0.06
12946 C 105.36061794176118 90.79366026926922 239.14071197454592 C 0.0 **** -0.24
12947 H 106.31883826638432 91.01482326137986 239.61025972287783 H 0.0 **** 0.06
12948 H 105.14643408851697 89.72919037098785 239.2375389527203 H 0.0 **** 0.06
12949 H 105.40238840498444 91.06197741152022 238.08494519595394 H 0.0 **** 0.06
12950 H 104.57466526568527 91.3681003299724 239.63092657772398 H 0.0 **** 0.06
12951 C 201.24485969278658 244.61881401903378 277.2868654780266 C 0.0 **** -0.24
12952 H 202.26692400805035 244.73572857522507 276.9241881011644 H 0.0 **** 0.06
12953 H 201.09751659119235 243.5950695919674 277.6325860497767 H 0.0 **** 0.06
12954 H 200.5469785983778 244.83334557478395 276.478431477657 H 0.0 **** 0.06
12955 H 201.07089878785786 245.3104993013045 278.11110113824515 H 0.0 **** 0.06
12956 C 83.6973079138626 102.69118460993764 196.38256752811822 C 0.0 **** -0.24
12957 H 84.00269944755223 101.67973166905051 196.6493601566836 H 0.0 **** 0.06
12958 H 83.82799948169327 102.83889491700683 195.31012464692975 H 0.0 **** 0.06
12959 H 84.3091860351027 103.41092954475437 196.92559583301056 H 0.0 **** 0.06
12960 H 82.64934669110212 102.8351823089389 196.645189475849 H 0.0 **** 0.06
12961 C 301.9121824748847 211.03896709781577 12.760826237250527 C 0.0 **** -0.24
12962 H 301.99073819363286 210.31565249907518 11.949250399865392 H 0.0 **** 0.06
12963 H 302.4685792241899 211.9396268067839 12.500322689656713 H 0.0 **** 0.06
12964 H 302.3262962904482 210.60702281786072 13.672835143170602 H 0.0 **** 0.06
12965 H 300.8642076313064 211.29241656405202 12.921594537227065 H 0.0 **** 0.06
12966 C 212.0142455992845 311.73423783836574 44.902870123967574 C 0.0 **** -0.24
12967 H 211.4932761049531 312.0909234377385 45.79111418778453 H 0.0 **** 0.06
12968 H 211.30827898551334 311.648069958905 44.07724455272523 H 0.0 **** 0.06
12969 H 212.455437257703 310.75874697547164 45.108352114619834 H 0.0 **** 0.06
12970 H 212.80220804492552 312.4399527998298 44.63664853397904 H 0.0 **** 0.06
12971 C 6.3477990618577 104.18033322215123 17.75191055400751 C 0.0 **** -0.24
12972 H 5.649553045116136 103.45826327265644 17.328878832834846 H 0.0 **** 0.06
12973 H 6.478249077059786 105.00998002685972 17.056826872298757 H 0.0 **** 0.06
12974 H 7.309330973774877 103.6976073798634 17.92637686325088 H 0.0 **** 0.06
12975 H 5.953579244262869 104.55582269129928 18.696365817767344 H 0.0 **** 0.06
12976 C 109.16108501775022 109.57781448764351 167.15331140023306 C 0.0 **** -0.24
12977 H 109.47754870950772 110.32760636099187 166.42782244031503 H 0.0 **** 0.06
12978 H 109.84064923564492 109.58799208540563 168.0059064057752 H 0.0 **** 0.06
12979 H 109.17763043483242 108.59259817358364 166.68675656330817 H 0.0 **** 0.06
12980 H 108.14947796501605 109.80308254974784 167.49100922542448 H 0.0 **** 0.06
12981 C 207.0145365169481 311.57431985220705 227.65767475756547 C 0.0 **** -0.24
12982 H 206.22402627690917 310.8747294852499 227.93002054991427 H 0.0 **** 0.06
12983 H 207.1288149412644 311.58903995796976 226.57348883577282 H 0.0 **** 0.06
12984 H 207.95073356545998 311.2612024400041 228.1192264014038 H 0.0 **** 0.06
12985 H 206.7518565106767 312.57216754457085 228.0095789335129 H 0.0 **** 0.06
12986 C 215.62261253415062 166.10916237226695 273.12086866165055 C 0.0 **** -0.24
12987 H 215.9129892659031 166.21174113236992 272.07466920299026 H 0.0 **** 0.06
12988 H 216.24453485585698 166.75887251001916 273.7355545216748 H 0.0 **** 0.06
12989 H 215.75595568107502 165.07374713900975 273.4337811867972 H 0.0 **** 0.06
12990 H 214.57619329372068 166.39164908503307 273.2358659656287 H 0.0 **** 0.06
12991 C 92.37666914367239 77.88737510527753 280.70776965067347 C 0.0 **** -0.24
12992 H 93.02484946624062 77.761381301684 279.84001151331717 H 0.0 **** 0.06
12993 H 91.41837822903057 78.29662014101132 280.38839624503 H 0.0 **** 0.06
12994 H 92.84698967676056 78.57075764770354 281.4145937062225 H 0.0 **** 0.06
12995 H 92.21893330482428 76.92121214234663 281.1859190824238 H 0.0 **** 0.06
12996 C 30.906604807023484 189.20723534127694 25.688234910273394 C 0.0 **** -0.24
12997 H 30.81042929318329 188.2495507284055 25.176073016409617 H 0.0 **** 0.06
12998 H 31.862485562527297 189.24439530676483 26.21006195534315 H 0.0 **** 0.06
12999 H 30.094956644294598 189.31845850086825 26.40640968936185 H 0.0 **** 0.06
13000 H 30.858807488773664 190.0150109449616 24.956988476622342 H 0.0 **** 0.06
13001 C 175.2070342352991 45.323552837188515 27.531891347194318 C 0.0 **** -0.24
13002 H 176.00016692157374 45.58908332964566 28.229756980847895 H 0.0 **** 0.06
13003 H 175.4878856570591 44.42109551517973 26.988707573570423 H 0.0 **** 0.06
13004 H 175.05640176007012 46.14063404599082 26.825869740858167 H 0.0 **** 0.06
13005 H 174.2838903791286 45.14427407384821 28.08279505433913 H 0.0 **** 0.06
13006 C 244.53065059880956 46.440603458467194 269.0340234845845 C 0.0 **** -0.24
13007 H 244.17179323912603 47.46963686178938 269.01006516850236 H 0.0 **** 0.06
13008 H 244.50274372266503 46.06997447656735 270.0590023706063 H 0.0 **** 0.06
13009 H 245.55475003452523 46.405427763804994 268.6623860721199 H 0.0 **** 0.06
13010 H 243.894165897575 45.81880493998341 268.40512112835324 H 0.0 **** 0.06
13011 C 40.473855944470074 81.31635382382751 116.69850530353827 C 0.0 **** -0.24
13012 H 39.64822274393882 81.44083147282254 115.99713914565675 H 0.0 **** 0.06
13013 H 41.20826073170076 82.10558294904953 116.5385292269282 H 0.0 **** 0.06
13014 H 40.942254164111716 80.34465654865409 116.53994343534825 H 0.0 **** 0.06
13015 H 40.09452582807336 81.37374125681214 117.71939398557296 H 0.0 **** 0.06
13016 C 252.42345751288283 186.54740558299085 311.1476606670231 C 0.0 **** -0.24
13017 H 253.08548134270268 187.0313205759008 311.8659211207805 H 0.0 **** 0.06
13018 H 252.53187773440203 185.46466624124656 311.2277851585302 H 0.0 **** 0.06
13019 H 252.68624618118852 186.86570602557651 310.1391427984633 H 0.0 **** 0.06
13020 H 251.39157069641357 186.82602042979204 311.3605402419539 H 0.0 **** 0.06
13021 C 46.155636393596325 49.715527274818044 268.39563250220976 C 0.0 **** -0.24
13022 H 46.02362375905457 49.398742540243774 267.36086516212856 H 0.0 **** 0.06
13023 H 45.34955702259296 50.394976524694044 268.67317730215325 H 0.0 **** 0.06
13024 H 47.11367979077892 50.22382508564647 268.49952441542746 H 0.0 **** 0.06
13025 H 46.13522769612442 48.84208415484085 269.0476838444522 H 0.0 **** 0.06
13026 C 94.49716623391362 39.99326322616946 32.75115394911259 C 0.0 **** -0.24
13027 H 95.23979946375127 39.58380418396871 33.43467828724894 H 0.0 **** 0.06
13028 H 93.54365920153816 40.096229874119615 33.2704973469082 H 0.0 **** 0.06
13029 H 94.37756648094819 39.32331894798176 31.899680571191624 H 0.0 **** 0.06
13030 H 94.82673204048879 40.97174188783532 32.39983892831353 H 0.0 **** 0.06
13031 C 108.65726347216273 45.59551362613092 270.84605443625037 C 0.0 **** -0.24
13032 H 108.60760276776594 45.14051671850342 269.857423578487 H 0.0 **** 0.06
13033 H 109.67160880621643 45.50567790899356 271.2367236618703 H 0.0 **** 0.06
13034 H 107.96322401900977 45.0854541302831 271.51523520785986 H 0.0 **** 0.06
13035 H 108.38615867012436 46.64915585086169 270.7753112312952 H 0.0 **** 0.06
13036 C 76.90916316272941 34.253028716720166 135.34125558239353 C 0.0 **** -0.24
13037 H 76.30939088354822 33.984946787038496 134.47135924201768 H 0.0 **** 0.06
13038 H 77.94126995508844 33.93834352997834 135.18125508140048 H 0.0 **** 0.06
13039 H 76.50990946574731 33.75641531202655 136.225054177821 H 0.0 **** 0.06
13040 H 76.87747750230145 35.333370043543056 135.48508878334576 H 0.0 **** 0.06
13041 C 38.00519109412511 123.46936505038116 125.91487850270028 C 0.0 **** -0.24
13042 H 37.01213549248226 123.92098646803208 125.91113333778793 H 0.0 **** 0.06
13043 H 38.334009514366926 123.3244759598127 126.94415006537946 H 0.0 **** 0.06
13044 H 38.70477901411118 124.12751179596282 125.39881168818238 H 0.0 **** 0.06
13045 H 37.967396162683826 122.50672505424399 125.40553075469296 H 0.0 **** 0.06
13046 C 172.84270407757964 116.26134179659283 293.4022862796978 C 0.0 **** -0.24
13047 H 173.84368487366396 116.67779267624914 293.2848194096752 H 0.0 **** 0.06
13048 H 172.91593125044312 115.20599618813907 293.6624972941972 H 0.0 **** 0.06
13049 H 172.29270538917103 116.36861631290952 292.46695212858714 H 0.0 **** 0.06
13050 H 172.31857749780323 116.7954068118907 294.1950032776184 H 0.0 **** 0.06
13051 C 236.31670820006346 55.6850851254292 21.39986793567499 C 0.0 **** -0.24
13052 H 235.68415905683588 55.134231105963806 20.703990949968897 H 0.0 **** 0.06
13053 H 236.36642337795394 55.14815552514662 22.34730308211053 H 0.0 **** 0.06
13054 H 235.89603456211924 56.67738501278674 21.565762415784576 H 0.0 **** 0.06
13055 H 237.3189910954709 55.781270750993855 20.98250158273487 H 0.0 **** 0.06
13056 C 303.20297712617247 37.841553005420025 103.08041382905375 C 0.0 **** -0.24
13057 H 303.721475057404 38.42758246871114 103.83911582093867 H 0.0 **** 0.06
13058 H 302.6770871216075 37.014458184633554 103.55745492893092 H 0.0 **** 0.06
13059 H 303.92889364949474 37.449472085376584 102.36722864362955 H 0.0 **** 0.06
13060 H 302.48714880390685 38.475921607088594 102.5573692405313 H 0.0 **** 0.06
13061 C 235.3161401300913 167.88995342638287 16.812901492580863 C 0.0 **** -0.24
13062 H 236.38796505240515 167.83298603281872 16.62830086137069 H 0.0 **** 0.06
13063 H 234.89724756518842 166.8835351491348 16.83791397261905 H 0.0 **** 0.06
13064 H 234.84038026110514 168.46117408648206 16.015334029970205 H 0.0 **** 0.06
13065 H 235.13731539548377 168.3825468565537 17.768300243722877 H 0.0 **** 0.06
13066 C 86.03272441617037 47.11919156614968 254.429511755442 C 0.0 **** -0.24
13067 H 85.86347909657073 47.30454480764229 253.36854259939045 H 0.0 **** 0.06
13068 H 87.05661247478224 47.391453796734794 254.68588037989122 H 0.0 **** 0.06
13069 H 85.87319035093932 46.061856998008324 254.64393155106114 H 0.0 **** 0.06
13070 H 85.33842449903423 47.71837686964636 255.01744282362705 H 0.0 **** 0.06
13071 C 68.66509688572705 58.83250631593887 119.44364819922475 C 0.0 **** -0.24
13072 H 68.0970849276784 59.60831582728798 118.93156484521583 H 0.0 **** 0.06
13073 H 68.56298464424842 58.95792470983102 120.52104026401682 H 0.0 **** 0.06
13074 H 69.71652086805855 58.909336641930395 119.16589279907444 H 0.0 **** 0.06
13075 H 68.28324227793237 57.85333381733702 119.15398524301096 H 0.0 **** 0.06
13076 C 233.04140256336143 289.71356776937284 28.642549338075185 C 0.0 **** -0.24
13077 H 233.77720943247925 290.02442494911907 27.900476957602336 H 0.0 **** 0.06
13078 H 233.15018423018998 288.64577813350235 28.836139623622216 H 0.0 **** 0.06
13079 H 232.0388973354653 289.91450275261633 28.26471372473057 H 0.0 **** 0.06
13080 H 233.2003842191176 290.26893995698083 29.566751651007422 H 0.0 **** 0.06
13081 C 151.70925634852546 59.536023331419756 177.53284940020143 C 0.0 **** -0.24
13082 H 150.66514458594696 59.38314863923091 177.8069338911818 H 0.0 **** 0.06
13083 H 152.01081743623536 58.77269811900618 176.81466426652656 H 0.0 **** 0.06
13084 H 152.33237708135567 59.463059413184396 178.42454002572913 H 0.0 **** 0.06
13085 H 151.8265571047355 60.52282254156373 177.08619495146672 H 0.0 **** 0.06
13086 C 22.98608544907586 170.18444090212125 108.78167514636354 C 0.0 **** -0.24
13087 H 23.336214944417776 169.4319983387731 109.48764035159266 H 0.0 **** 0.06
13088 H 23.8361647273085 170.75950984668935 108.41295264226906 H 0.0 **** 0.06
13089 H 22.284284869952558 170.85227077474485 109.28106933683074 H 0.0 **** 0.06
13090 H 22.488630799456246 169.69425420704368 107.9451727717819 H 0.0 **** 0.06
13091 C 281.7150704911576 82.06856127144658 31.910931965424425 C 0.0 **** -0.24
13092 H 281.95756457422897 81.62534960853864 32.87652162425053 H 0.0 **** 0.06
13093 H 282.62815940859474 82.19229759544658 31.327449054632922 H 0.0 **** 0.06
13094 H 281.2480018832665 83.04122944079484 32.065327229841614 H 0.0 **** 0.06
13095 H 281.0265560985401 81.41536844100622 31.374429952972577 H 0.0 **** 0.06
13096 C 238.1411302595974 225.18784988969765 51.92537897323743 C 0.0 **** -0.24
13097 H 239.12935298726651 225.1271873756612 52.38239347460558 H 0.0 **** 0.06
13098 H 238.23669393198475 225.11091358836103 50.84293602608628 H 0.0 **** 0.06
13099 H 237.68126581852607 226.14215645543783 52.1837063391863 H 0.0 **** 0.06
13100 H 237.5195357699763 224.37314520996262 52.295231538298054 H 0.0 **** 0.06
13101 C 150.73205771918134 222.38075697565012 113.3729844218208 C 0.0 **** -0.24
13102 H 151.36306137636615 222.63149589578643 112.52060614537496 H 0.0 **** 0.06
13103 H 149.73909978976695 222.10015392961338 113.02058289733841 H 0.0 **** 0.06
13104 H 150.65287627644653 223.2443503058278 114.0327906100386 H 0.0 **** 0.06
13105 H 151.173241029601 221.54544736918544 113.91866519583334 H 0.0 **** 0.06
13106 C 286.82403594661304 33.439190983912596 11.325307982167288 C 0.0 **** -0.24
13107 H 287.00791358525976 34.41619393064164 10.879169435524531 H 0.0 **** 0.06
13108 H 285.8072876637373 33.12022673926839 11.09520345923454 H 0.0 **** 0.06
13109 H 286.9486892275396 33.504271478919634 12.406170803424601 H 0.0 **** 0.06
13110 H 287.5322533099154 32.71607178682066 10.920688230485467 H 0.0 **** 0.06
13111 C 308.4198403911249 132.75557598065063 144.3426150757307 C 0.0 **** -0.24
13112 H 308.05980479422374 133.58686604701097 144.94929418967328 H 0.0 **** 0.06
13113 H 309.36726819632213 133.02814849594463 143.87759020751292 H 0.0 **** 0.06
13114 H 307.68695271534136 132.52670840357766 143.5691846425466 H 0.0 **** 0.06
13115 H 308.5635775337215 131.88000509237432 144.97675276527005 H 0.0 **** 0.06
13116 C 24.764782650690506 85.93395317395291 248.1930417507976 C 0.0 **** -0.24
13117 H 25.565966041043026 86.59878582725457 248.51567012454305 H 0.0 **** 0.06
13118 H 23.82802877349937 86.4896267213731 248.14793705963504 H 0.0 **** 0.06
13119 H 24.66747683825713 85.11278407318545 248.90335452541416 H 0.0 **** 0.06
13120 H 24.99950936293081 85.53575702489206 247.205728958968 H 0.0 **** 0.06
13121 C 169.41240655522205 128.93783166770237 303.9103952528902 C 0.0 **** -0.24
13122 H 169.8976867550166 128.5791251742984 304.817808679507 H 0.0 **** 0.06
13123 H 169.85906073661954 129.88616851757814 303.6106910422361 H 0.0 **** 0.06
13124 H 168.34852080685283 129.0805631424233 304.101070874413 H 0.0 **** 0.06
13125 H 169.54367220087016 128.20568709426436 303.1143519132311 H 0.0 **** 0.06
13126 C 44.47011509327962 111.79566452736066 311.1456602039432 C 0.0 **** -0.24
13127 H 43.83066999980073 111.22863883867345 310.46916098698733 H 0.0 **** 0.06
13128 H 45.50413623229133 111.73143719377518 310.80647959595365 H 0.0 **** 0.06
13129 H 44.3908826794256 111.38417320749863 312.1514924288233 H 0.0 **** 0.06
13130 H 44.15438325485738 112.83984859570933 311.1546266130747 H 0.0 **** 0.06
13131 C 223.29049334013865 156.94554395170667 99.24303641108813 C 0.0 **** -0.24
13132 H 223.60681938518377 156.14155129008617 98.57879174128735 H 0.0 **** 0.06
13133 H 222.37434189899358 157.39581208821335 98.85882097770053 H 0.0 **** 0.06
13134 H 224.0735889665147 157.70312576214798 99.29407950963159 H 0.0 **** 0.06
13135 H 223.1090775556915 156.5442963293831 100.23958696365426 H 0.0 **** 0.06
13136 C 251.06356474487342 264.0684531307389 39.189512798676674 C 0.0 **** -0.24
13137 H 252.07313676223077 263.6970840042732 39.01475965347328 H 0.0 **** 0.06
13138 H 250.75334489376564 264.68667223075266 38.347759786658855 H 0.0 **** 0.06
13139 H 251.04894992493024 264.6638787904568 40.10307781898459 H 0.0 **** 0.06
13140 H 250.38000569336077 263.22650737115805 39.29432551974401 H 0.0 **** 0.06
13141 C 45.67291583927212 307.260914729583 267.29427235956246 C 0.0 **** -0.24
13142 H 46.64568005814019 306.89929728883703 266.9609887700509 H 0.0 **** 0.06
13143 H 44.928865415727074 307.0653059423396 266.52176118037437 H 0.0 **** 0.06
13144 H 45.729350537837064 308.33331553034975 267.48219521405184 H 0.0 **** 0.06
13145 H 45.38849908203457 306.7450928212578 268.21193091336 H 0.0 **** 0.06
13146 C 85.77340358162178 49.08346824039717 215.91621162225204 C 0.0 **** -0.24
13147 H 85.94447740571218 49.363402600544134 216.95635673573176 H 0.0 **** 0.06
13148 H 85.66786754955035 47.999993483642356 215.84513450653327 H 0.0 **** 0.06
13149 H 86.61856875451463 49.407149930980836 215.30979234661106 H 0.0 **** 0.06
13150 H 84.86212043225007 49.561259834566556 215.55645953492268 H 0.0 **** 0.06
13151 C 95.40910194105746 104.96785189174867 279.106375070848 C 0.0 **** -0.24
13152 H 95.91053796224313 104.31389642641935 278.3924314322064 H 0.0 **** 0.06
13153 H 94.35160050358567 105.039323752672 278.8512107420488 H 0.0 **** 0.06
13154 H 95.85955924016685 105.95903020878589 279.0690105243997 H 0.0 **** 0.06
13155 H 95.51388564614709 104.55749282298822 280.1104916764383 H 0.0 **** 0.06
13156 C 111.61749320112696 157.46277631266798 10.19809523465183 C 0.0 **** -0.24
13157 H 112.63609956581104 157.50118199629145 9.811782630673875 H 0.0 **** 0.06
13158 H 111.6095958873567 156.92297523605708 11.145649341543447 H 0.0 **** 0.06
13159 H 110.97688956470554 156.9500796527637 9.481645334942726 H 0.0 **** 0.06
13160 H 111.25006271644756 158.4764529649459 10.354123527080361 H 0.0 **** 0.06
13161 C 131.12499091220783 221.15585392493654 198.71954477613303 C 0.0 **** -0.24
13162 H 131.58289283101067 220.17504399723046 198.5946285456164 H 0.0 **** 0.06
13163 H 130.78743632375458 221.27130970206792 199.74910449247676 H 0.0 **** 0.06
13164 H 130.27255758515852 221.24741531305875 198.04561800708495 H 0.0 **** 0.06
13165 H 131.8560585180061 221.92986208707657 198.48787072349228 H 0.0 **** 0.06
13166 C 215.12671884579663 38.8308058935219 243.5727975014952 C 0.0 **** -0.24
13167 H 215.2223973958777 38.63677028594785 244.6411748452193 H 0.0 **** 0.06
13168 H 216.07430194813043 38.61752592239938 243.07817818545897 H 0.0 **** 0.06
13169 H 214.8615675273926 39.876849092045774 243.41707737410505 H 0.0 **** 0.06
13170 H 214.34714194036007 38.19368596826982 243.15682467430332 H 0.0 **** 0.06
13171 C 193.20752290882945 197.08740190791121 267.43986950055603 C 0.0 **** -0.24
13172 H 193.68225999221232 197.952925830573 267.9007733795428 H 0.0 **** 0.06
13173 H 192.12651987235904 197.2259890634212 267.4342673516273 H 0.0 **** 0.06
13174 H 193.45647183721576 196.19083698697114 268.0094466534351 H 0.0 **** 0.06
13175 H 193.565065162643 196.97765782268118 266.4160481673237 H 0.0 **** 0.06
13176 C 8.357069559783326 50.576420446914426 79.5812461503412 C 0.0 **** -0.24
13177 H 8.490542042521326 50.72124482712664 78.50922593374 H 0.0 **** 0.06
13178 H 7.619129084765291 49.7913293515349 79.75239283228885 H 0.0 **** 0.06
13179 H 8.009630926805585 51.50561652259634 80.03306182059444 H 0.0 **** 0.06
13180 H 9.30667878724023 50.28716167751213 80.03108726447618 H 0.0 **** 0.06
13181 C 309.0179467166157 131.5194067212446 192.89204608629257 C 0.0 **** -0.24
13182 H 308.27475083253785 132.09757590760887 192.34383206283206 H 0.0 **** 0.06
13183 H 309.98992526348616 131.62496919974336 192.40948145804737 H 0.0 **** 0.06
13184 H 308.7273234496246 130.46784899257372 192.8981140075358 H 0.0 **** 0.06
13185 H 309.0786187528902 131.88447458372053 193.91692056945362 H 0.0 **** 0.06
13186 C 304.2263470929899 276.41814150565193 161.87116832538686 C 0.0 **** -0.24
13187 H 305.21160658433337 276.04160240434805 161.59844065090869 H 0.0 **** 0.06
13188 H 304.3246842678109 277.1487980044798 162.67413297686022 H 0.0 **** 0.06
13189 H 303.6013171033819 275.5909343729845 162.2068470698709 H 0.0 **** 0.06
13190 H 303.7656547693804 276.89153452332704 161.00407376069086 H 0.0 **** 0.06
13191 C 310.483101873586 250.4475875781357 175.26673443408856 C 0.0 **** -0.24
13192 H 309.53525913805856 250.09602905203005 175.67461076650056 H 0.0 **** 0.06
13193 H 311.2882042802929 249.79151671740564 175.59829663395885 H 0.0 **** 0.06
13194 H 310.67465319447507 251.46273706498806 175.61632128557818 H 0.0 **** 0.06
13195 H 310.4339780903754 250.44305111304192 174.1776978755455 H 0.0 **** 0.06
13196 C 200.3644595226496 311.2015717388498 146.08178823555286 C 0.0 **** -0.24
13197 H 200.45889811438371 312.22837611109617 146.43545967133778 H 0.0 **** 0.06
13198 H 199.5937517188646 311.1518610833915 145.31166636962797 H 0.0 **** 0.06
13199 H 200.0876176012015 310.55530986025144 146.91498898364316 H 0.0 **** 0.06
13200 H 201.31586368154535 310.8720094702943 145.66572672320765 H 0.0 **** 0.06
13201 C 221.48694793399235 121.6272740147472 44.21550867619601 C 0.0 **** -0.24
13202 H 220.4022562605938 121.72549908730329 44.172950970308705 H 0.0 **** 0.06
13203 H 221.8050593068076 120.81892710565381 43.55743970028345 H 0.0 **** 0.06
13204 H 221.7914157642292 121.40556440210892 45.238910133556146 H 0.0 **** 0.06
13205 H 221.94878332496336 122.56130605220889 43.89448908559399 H 0.0 **** 0.06
13206 C 286.6939278135492 252.23091383559034 230.6995495235215 C 0.0 **** -0.24
13207 H 287.54875323663094 252.63622847545489 230.1580544734516 H 0.0 **** 0.06
13208 H 286.95791048068827 252.10211960997643 231.75009964468228 H 0.0 **** 0.06
13209 H 286.41850958670295 251.2663363569544 230.27334600743612 H 0.0 **** 0.06
13210 H 285.8525267556662 252.9180976287572 230.61783025695664 H 0.0 **** 0.06
13211 C 41.23159219407768 3.8677808938295613 200.78468793385235 C 0.0 **** -0.24
13212 H 41.93844423972479 3.0847527554555825 201.05851172471728 H 0.0 **** 0.06
13213 H 41.63298646910047 4.838287443171637 201.07444648585954 H 0.0 **** 0.06
13214 H 40.28505650162043 3.6982648249013153 201.29901160639474 H 0.0 **** 0.06
13215 H 41.067427164223034 3.848156155554122 199.70724277835438 H 0.0 **** 0.06
13216 C 129.87341325704247 166.3750527761718 297.8645541899867 C 0.0 **** -0.24
13217 H 129.60146815033184 165.60917896306967 297.1372732832048 H 0.0 **** 0.06
13218 H 129.12597794183628 167.16930875082892 297.8499852674561 H 0.0 **** 0.06
13219 H 130.84866036907505 166.78865539500407 297.6092851345593 H 0.0 **** 0.06
13220 H 129.9138760124511 165.93248171027244 298.85939636993743 H 0.0 **** 0.06
13221 C 13.493232440617362 133.52251935431826 154.926540296342 C 0.0 **** -0.24
13222 H 14.427892547680472 133.11390137609715 154.542477564617 H 0.0 **** 0.06
13223 H 12.883764867707782 132.71530208575237 155.33286517751202 H 0.0 **** 0.06
13224 H 12.952327305069502 134.01430969473736 154.11650063274664 H 0.0 **** 0.06
13225 H 13.708046252222402 134.24667451772646 155.7120418387621 H 0.0 **** 0.06
13226 C 75.51562812018881 21.186891661886392 31.107047066320177 C 0.0 **** -0.24
13227 H 75.71668544593462 20.12036502041407 31.210096698176272 H 0.0 **** 0.06
13228 H 75.77284626102923 21.50867078764469 30.09720976340077 H 0.0 **** 0.06
13229 H 76.11392677567113 21.74034588380823 31.829228818198146 H 0.0 **** 0.06
13230 H 74.45769415922388 21.37629613321178 31.28976004377614 H 0.0 **** 0.06
13231 C 143.1590682958647 157.25569273518317 287.3666396910845 C 0.0 **** -0.24
13232 H 142.29744789424734 156.61494949080958 287.18348751127047 H 0.0 **** 0.06
13233 H 143.11017982679974 157.6490834565185 288.3820883646821 H 0.0 **** 0.06
13234 H 143.1548046218281 158.08193942703082 286.6558671716935 H 0.0 **** 0.06
13235 H 144.07502804482186 156.67672070055875 287.2443511959155 H 0.0 **** 0.06
13236 C 309.45818836515184 244.3406218386157 157.0287743001906 C 0.0 **** -0.24
13237 H 309.22506487770136 243.70468329141693 157.88233329067492 H 0.0 **** 0.06
13238 H 308.64875833673597 244.2832567833635 156.30158544869897 H 0.0 **** 0.06
13239 H 310.3872567997638 244.00429597281754 156.56751069876623 H 0.0 **** 0.06
13240 H 309.5728566923159 245.37185690374378 157.36467870786998 H 0.0 **** 0.06
13241 C 238.8733671634816 169.75842497285106 272.58421609135473 C 0.0 **** -0.24
13242 H 239.46856671073473 168.8590989593743 272.4269597117701 H 0.0 **** 0.06
13243 H 239.38782347162692 170.61515369695803 272.1478046401387 H 0.0 **** 0.06
13244 H 238.7384136294634 169.92146862796574 273.65343246784266 H 0.0 **** 0.06
13245 H 237.9002775169536 169.6376404779877 272.1092013640155 H 0.0 **** 0.06
13246 C 68.85929212923475 153.88720987917264 197.81286611503094 C 0.0 **** -0.24
13247 H 69.45762300519351 153.05066007098748 197.45143018320886 H 0.0 **** 0.06
13248 H 68.69944015053045 154.59595086942647 196.99967984593627 H 0.0 **** 0.06
13249 H 69.38366699035959 154.38271763473767 198.62872726145122 H 0.0 **** 0.06
13250 H 67.89777497850187 153.51771129816876 198.1686313680019 H 0.0 **** 0.06
13251 C 64.38213767924472 149.67640117184146 149.6527578259117 C 0.0 **** -0.24
13252 H 64.52020385168427 150.75601613357975 149.7237481310268 H 0.0 **** 0.06
13253 H 65.19350513468882 149.24550441020978 149.06476786826545 H 0.0 **** 0.06
13254 H 63.4293267517925 149.46397221907068 149.16947569356887 H 0.0 **** 0.06
13255 H 64.38762719385056 149.24365211394417 150.6531149959626 H 0.0 **** 0.06
13256 C 27.982186244581413 239.09069547964947 90.23785146438829 C 0.0 **** -0.24
13257 H 27.0125515853955 239.5076321866741 89.96389569353968 H 0.0 **** 0.06
13258 H 28.712366306351726 239.3293434389069 89.46486532174438 H 0.0 **** 0.06
13259 H 27.896713259506072 238.00817733448494 90.3348627329307 H 0.0 **** 0.06
13260 H 28.305301786687608 239.51598090629972 91.18780356863832 H 0.0 **** 0.06
13261 C 266.0567555437457 58.92330057097266 287.05252113009254 C 0.0 **** -0.24
13262 H 265.17064343606694 58.33943588521163 286.8042073976667 H 0.0 **** 0.06
13263 H 265.7523271939151 59.89327978992128 287.44719447600835 H 0.0 **** 0.06
13264 H 266.65860586043993 59.068962967844186 286.1561824626241 H 0.0 **** 0.06
13265 H 266.6438147487631 58.39303956960964 287.80229516912794 H 0.0 **** 0.06
13266 C 248.0454516856069 43.564086598149004 265.91336316232395 C 0.0 **** -0.24
13267 H 247.72921643499012 43.44700341168854 266.94934585454075 H 0.0 **** 0.06
13268 H 248.32026179599634 44.60386152174067 265.73219509776334 H 0.0 **** 0.06
13269 H 247.22657635006448 43.284455032369124 265.2502698629035 H 0.0 **** 0.06
13270 H 248.90537380290135 42.92198711609723 265.7206754335814 H 0.0 **** 0.06
13271 C 51.040677024168616 51.2023710368627 142.34299139645535 C 0.0 **** -0.24
13272 H 51.80936087293318 51.740030440344526 141.7872406792902 H 0.0 **** 0.06
13273 H 51.03775833555335 51.542070858186776 143.37890735081615 H 0.0 **** 0.06
13274 H 51.25063279068348 50.133465403385 142.31033146704743 H 0.0 **** 0.06
13275 H 50.06708280431681 51.3959507126678 141.8943272151071 H 0.0 **** 0.06
13276 C 95.78034702572586 202.39245071673855 229.1420814080705 C 0.0 **** -0.24
13277 H 96.29686567585316 202.06051906264884 230.042597487944 H 0.0 **** 0.06
13278 H 96.2637078683226 201.96111784985897 228.26536446132707 H 0.0 **** 0.06
13279 H 95.81987676945855 203.48043728121712 229.08035629769415 H 0.0 **** 0.06
13280 H 94.73943407834332 202.06938355514166 229.17999183467177 H 0.0 **** 0.06
13281 C 201.4970497656335 176.465996365377 52.30052262802889 C 0.0 **** -0.24
13282 H 201.91833815177034 176.43371223804314 53.30599574406625 H 0.0 **** 0.06
13283 H 200.46668193974114 176.11207859312321 52.32746147941879 H 0.0 **** 0.06
13284 H 202.08408439292037 175.82836940789792 51.63992626338148 H 0.0 **** 0.06
13285 H 201.51999352702825 177.49114720924229 51.93027043954069 H 0.0 **** 0.06
13286 C 71.65855595660912 28.42991368793139 59.895232271438886 C 0.0 **** -0.24
13287 H 72.39973238798973 27.811758735421563 59.38943656314882 H 0.0 **** 0.06
13288 H 72.00719049884307 28.66243488802155 60.90246571337158 H 0.0 **** 0.06
13289 H 70.71326061198022 27.890095829633765 59.954331703962225 H 0.0 **** 0.06
13290 H 71.51548366517252 29.354652081888275 59.33759478596306 H 0.0 **** 0.06
13291 C 299.6602588810564 232.0654995897379 309.2204445739507 C 0.0 **** -0.24
13292 H 298.8419992734878 232.45350507850625 309.82705343071797 H 0.0 **** 0.06
13293 H 299.851851852697 231.02762217993848 309.4916492244386 H 0.0 **** 0.06
13294 H 300.5564976377222 232.65983223006546 309.3983382324036 H 0.0 **** 0.06
13295 H 299.3897905268433 232.12310204647295 308.16645208204363 H 0.0 **** 0.06
13296 C 209.85051017416328 273.6224767732596 122.67757218714303 C 0.0 **** -0.24
13297 H 210.63968233812597 273.2914052765327 123.35288271657896 H 0.0 **** 0.06
13298 H 208.97191791588153 272.99083137972906 122.80899170917365 H 0.0 **** 0.06
13299 H 210.20029490446473 273.5496897489161 121.64760177824513 H 0.0 **** 0.06
13300 H 209.5915929656307 274.6573429339148 122.90203657140998 H 0.0 **** 0.06
13301 C 55.01399912538636 200.1590020234724 71.92420704677801 C 0.0 **** -0.24
13302 H 54.74035800295303 199.85970596917394 72.93655815355095 H 0.0 **** 0.06
13303 H 55.66773492815082 199.40337583629395 71.48770857158908 H 0.0 **** 0.06
13304 H 55.534064407823735 201.11610299325844 71.95597468681402 H 0.0 **** 0.06
13305 H 54.11284898100371 200.2539977003246 71.3180135210053 H 0.0 **** 0.06
13306 C 47.04757937609304 37.165357814605784 222.09934174833967 C 0.0 **** -0.24
13307 H 46.09044660713198 36.674064872057755 222.2768198062301 H 0.0 **** 0.06
13308 H 47.76359219230733 36.85104646297927 222.8591235420424 H 0.0 **** 0.06
13309 H 46.91518162316254 38.24625593242209 222.14832587447066 H 0.0 **** 0.06
13310 H 47.41983400933293 36.88962483181953 221.1126375573287 H 0.0 **** 0.06
13311 C 185.1706684644742 71.68984548142794 301.837738732768 C 0.0 **** -0.24
13312 H 184.5104181437914 72.32861839061843 301.2515296981976 H 0.0 **** 0.06
13313 H 185.18092777125855 70.68756622085505 301.40701563169586 H 0.0 **** 0.06
13314 H 184.81144469398902 71.64011018266228 302.8644797039744 H 0.0 **** 0.06
13315 H 186.17953192221955 72.1008900080542 301.8238008153584 H 0.0 **** 0.06
13316 C 165.2178956484331 5.0269373956867724 313.1413822859358 C 0.0 **** -0.24
13317 H 164.43638325251857 5.70555212872307 313.4841821870168 H 0.0 **** 0.06
13318 H 164.83100252114298 4.4079572633380195 312.3317918620418 H 0.0 **** 0.06
13319 H 165.5325468784934 4.389267168222716 313.9681516849851 H 0.0 **** 0.06
13320 H 166.069693597948 5.605140368576556 312.7836716150269 H 0.0 **** 0.06
13321 C 48.08724799534451 170.92674829282237 230.24163281327696 C 0.0 **** -0.24
13322 H 48.417307873928735 170.56174503988967 231.21344475239243 H 0.0 **** 0.06
13323 H 48.639068985541314 171.8322183675603 229.98745788835677 H 0.0 **** 0.06
13324 H 47.02062789384411 171.1489704672652 230.28055859312016 H 0.0 **** 0.06
13325 H 48.27198722806395 170.16405929657424 229.48507001923835 H 0.0 **** 0.06
13326 C 196.90808880429637 111.36681020496681 178.29125314495275 C 0.0 **** -0.24
13327 H 196.2006742736021 110.96860022614862 177.5645394186157 H 0.0 **** 0.06
13328 H 196.8946124588361 112.45679632653918 178.25185770748755 H 0.0 **** 0.06
13329 H 197.91011361902298 111.00729622448293 178.05635035619707 H 0.0 **** 0.06
13330 H 196.62863212726705 111.03526236085904 179.29097027482214 H 0.0 **** 0.06
13331 C 181.44330013787953 121.39352735687555 311.7302663116749 C 0.0 **** -0.24
13332 H 180.93890828127127 122.18610702640981 312.283501953057 H 0.0 **** 0.06
13333 H 182.15952732325485 120.89389831634298 312.3832470118059 H 0.0 **** 0.06
13334 H 181.96722569760448 121.82323642361243 310.8772343838089 H 0.0 **** 0.06
13335 H 180.70652134871813 120.6711546546565 311.37877940530575 H 0.0 **** 0.06
13336 C 92.2739100869411 211.07171584599263 223.82961034459456 C 0.0 **** -0.24
13337 H 92.43702261570215 212.0938410345654 223.48968572596897 H 0.0 **** 0.06
13338 H 93.20199202185782 210.672694064437 224.2398052898006 H 0.0 **** 0.06
13339 H 91.95391705925434 210.45591430360628 222.98965542425947 H 0.0 **** 0.06
13340 H 91.50315851407959 211.06376124602266 224.59990449904726 H 0.0 **** 0.06
13341 C 183.41559594886087 110.94610956504349 78.08477876194956 C 0.0 **** -0.24
13342 H 183.79783543830666 111.91658282224608 77.76970261935384 H 0.0 **** 0.06
13343 H 182.67401561508456 111.08475035561469 78.87092104267504 H 0.0 **** 0.06
13344 H 184.23759384603557 110.33726369706349 78.46425277457183 H 0.0 **** 0.06
13345 H 182.95457386396367 110.4433692239152 77.23377456521388 H 0.0 **** 0.06
13346 C 310.22970613662613 279.34161118054465 147.4747612159782 C 0.0 **** -0.24
13347 H 310.0136958257869 280.1704747584224 146.8014506932946 H 0.0 **** 0.06
13348 H 309.65282655190526 278.4674527702111 147.17061425417012 H 0.0 **** 0.06
13349 H 309.957283702 279.6201785282624 148.4928504069707 H 0.0 **** 0.06
13350 H 311.2935265819069 279.1076397452829 147.43466411566067 H 0.0 **** 0.06
13351 C 82.8616959562521 117.02585537344984 148.78712418738075 C 0.0 **** -0.24
13352 H 82.47491962232192 117.41600724733655 147.84548522549656 H 0.0 **** 0.06
13353 H 83.9017752399331 116.72768374380578 148.65715453535745 H 0.0 **** 0.06
13354 H 82.27121991262408 116.16164178496905 149.09183268176906 H 0.0 **** 0.06
13355 H 82.79758917462368 117.79802000621711 149.55342663940905 H 0.0 **** 0.06
13356 C 172.7028961887783 125.58956526026265 89.66141299497849 C 0.0 **** -0.24
13357 H 171.92062008498823 126.17701703484545 89.18029361078024 H 0.0 **** 0.06
13358 H 172.43851814690362 124.5326314578015 89.62309146315812 H 0.0 **** 0.06
13359 H 172.80319872723624 125.90182020887909 90.70148587860083 H 0.0 **** 0.06
13360 H 173.64789011454394 125.74808916471534 89.14235423192184 H 0.0 **** 0.06
13361 C 204.37290294517913 223.07008595910042 110.58714275244506 C 0.0 **** -0.24
13362 H 204.80090206339963 222.65728013217898 111.50019392854892 H 0.0 **** 0.06
13363 H 203.87737852127077 224.01427611292772 110.8133967010144 H 0.0 **** 0.06
13364 H 203.6476950130047 222.36779969864054 110.17630237880729 H 0.0 **** 0.06
13365 H 205.16540851596255 223.24129287389997 109.85960274929099 H 0.0 **** 0.06
13366 C 249.35452928141402 304.2496844556599 0.9482491456636808 C 0.0 **** -0.24
13367 H 248.85057783727558 303.7931607418341 0.09703155572083233 H 0.0 **** 0.06
13368 H 249.66040407622455 303.4731045501968 1.648953511363061 H 0.0 **** 0.06
13369 H 248.67284044221228 304.94066014323437 1.4458305791786756 H 0.0 **** 0.06
13370 H 250.23347817224462 304.79329864311995 0.6015333928661448 H 0.0 **** 0.06
13371 C 97.53818010408557 147.70686734789737 250.70006713677157 C 0.0 **** -0.24
13372 H 97.90810775956257 148.52594923468905 251.31712527356663 H 0.0 **** 0.06
13373 H 98.38165576182632 147.14722705685062 250.2963458129704 H 0.0 **** 0.06
13374 H 96.94325721206269 148.1103605202598 249.88041454911493 H 0.0 **** 0.06
13375 H 96.91913366621645 147.0456664118184 251.30767653971805 H 0.0 **** 0.06
13376 C 262.3825336854848 31.757067980239697 309.38350545025736 C 0.0 **** -0.24
13377 H 263.41522855716386 32.066803723102964 309.55069226686146 H 0.0 **** 0.06
13378 H 261.708463128398 32.48081399256915 309.8426829189924 H 0.0 **** 0.06
13379 H 262.2216777745781 30.77519088207498 309.82806038234486 H 0.0 **** 0.06
13380 H 262.1886003864494 31.706824079414673 308.31192261288743 H 0.0 **** 0.06
13381 C 9.069169237426706 188.02146781868515 83.32460135163865 C 0.0 **** -0.24
13382 H 8.011042987052633 188.24741149241675 83.19076321534618 H 0.0 **** 0.06
13383 H 9.485276274137902 188.67423814980248 84.09156756732352 H 0.0 **** 0.06
13384 H 9.595443567931682 188.1820964752663 82.38419765679376 H 0.0 **** 0.06
13385 H 9.181459829912285 186.98187074609433 83.63193357934836 H 0.0 **** 0.06
13386 C 158.51500490358308 278.20367017193416 215.7275707596202 C 0.0 **** -0.24
13387 H 157.62838757477635 278.3342555762423 215.10766067633335 H 0.0 **** 0.06
13388 H 159.1682934139946 277.4570303467288 215.27489157039886 H 0.0 **** 0.06
13389 H 158.21679847667963 277.87086058583907 216.72184187809196 H 0.0 **** 0.06
13390 H 159.04587819325178 279.1520170891088 215.806431534489 H 0.0 **** 0.06
13391 C 124.68444273761682 242.5042303705077 91.06792796029205 C 0.0 **** -0.24
13392 H 125.31092421241547 243.249749728999 90.57729143307233 H 0.0 **** 0.06
13393 H 125.3060737951113 241.67988660979427 91.4165259231477 H 0.0 **** 0.06
13394 H 123.94535384584384 242.12850099334182 90.35954360118609 H 0.0 **** 0.06
13395 H 124.1744977899479 242.96085954189928 91.91639027628082 H 0.0 **** 0.06
13396 C 144.78464912315803 201.82850549922978 305.97328182710703 C 0.0 **** -0.24
13397 H 145.80637528576287 201.54254956454594 306.225055944989 H 0.0 **** 0.06
13398 H 144.4899250351915 202.6885648140967 306.5730042865821 H 0.0 **** 0.06
13399 H 144.11386515646024 200.99441674225636 306.1791851180546 H 0.0 **** 0.06
13400 H 144.73067152014931 202.0862908795067 304.91550752853965 H 0.0 **** 0.06
13401 C 245.2984044944523 13.46930236652679 178.3332950178616 C 0.0 **** -0.24
13402 H 245.06471463231233 14.351371656816582 177.73667188076763 H 0.0 **** 0.06
13403 H 246.3464381224658 13.499604916741532 178.63088974031456 H 0.0 **** 0.06
13404 H 245.1150080117701 12.572367881584796 177.7416121549133 H 0.0 **** 0.06
13405 H 244.66809426500333 13.45330448066943 179.22193748157986 H 0.0 **** 0.06
13406 C 198.2172825323981 229.96998079480866 76.81703495900021 C 0.0 **** -0.24
13407 H 197.25201580509605 230.4750745378754 76.79711506918886 H 0.0 **** 0.06
13408 H 199.0102352251302 230.70734444672757 76.94794419731528 H 0.0 **** 0.06
13409 H 198.3678413943132 229.4377829293844 75.87729626384555 H 0.0 **** 0.06
13410 H 198.23903645605714 229.26109201978926 77.64375426687246 H 0.0 **** 0.06
13411 C 168.7900647141837 301.7589692084679 16.398787083625038 C 0.0 **** -0.24
13412 H 168.18273806905546 300.85605369256604 16.465893487694174 H 0.0 **** 0.06
13413 H 168.36327657684575 302.4277877147127 15.651124029092983 H 0.0 **** 0.06
13414 H 169.80666679217245 301.4914088680384 16.110429614983147 H 0.0 **** 0.06
13415 H 168.80725170001358 302.2582737758483 17.36710258104729 H 0.0 **** 0.06
13416 C 182.61652032912554 3.0962718023931473 175.83422673642622 C 0.0 **** -0.24
13417 H 182.49666327110236 2.5196516142314636 174.9175796998486 H 0.0 **** 0.06
13418 H 182.63414362769805 4.159542643678321 175.59433949477403 H 0.0 **** 0.06
13419 H 183.55182553156425 2.817497062838399 176.319929499689 H 0.0 **** 0.06
13420 H 181.78285648071386 2.889653310732811 176.50531893312257 H 0.0 **** 0.06
13421 C 27.74980019834959 48.76469215637357 289.42658984605623 C 0.0 **** -0.24
13422 H 28.835142920017404 48.848435631504856 289.36960250177464 H 0.0 **** 0.06
13423 H 27.45439751866769 47.7336389572431 289.2291540012914 H 0.0 **** 0.06
13424 H 27.294434343952048 49.42200322450583 288.68599181244053 H 0.0 **** 0.06
13425 H 27.415750620252396 49.053808753938426 290.42300633627036 H 0.0 **** 0.06
13426 C 193.27682906896683 210.64904663519314 301.8127703501529 C 0.0 **** -0.24
13427 H 192.86425459587917 209.6570286082798 301.6287869577799 H 0.0 **** 0.06
13428 H 194.13419452326087 210.81293857457186 301.1590370212344 H 0.0 **** 0.06
13429 H 193.5937927974635 210.7223736608268 302.8528691387426 H 0.0 **** 0.06
13430 H 192.51515522828726 211.40162306702587 301.61061936356657 H 0.0 **** 0.06
13431 C 204.70890616174006 234.16646253354665 186.23711758955807 C 0.0 **** -0.24
13432 H 204.27146004745316 233.21039607406746 186.5227557648472 H 0.0 **** 0.06
13433 H 204.5751979458998 234.32163746164503 185.16670962855795 H 0.0 **** 0.06
13434 H 205.7733822740849 234.1649669872005 186.4750245603987 H 0.0 **** 0.06
13435 H 204.21608937160192 234.96934288491212 186.78585168263572 H 0.0 **** 0.06
13436 C 156.235730194415 229.4232427334656 100.30955427918394 C 0.0 **** -0.24
13437 H 155.75838633514667 228.46207403708303 100.117263016648 H 0.0 **** 0.06
13438 H 156.47569609176003 229.50320129750688 101.37057942191817 H 0.0 **** 0.06
13439 H 155.5589980800001 230.228806320467 100.02692679185921 H 0.0 **** 0.06
13440 H 157.15267755846577 229.49590284400114 99.72327158501685 H 0.0 **** 0.06
13441 C 197.92902423546855 139.18697996857694 153.66489079879057 C 0.0 **** -0.24
13442 H 197.6062789426585 139.4092991954903 152.64766909813653 H 0.0 **** 0.06
13443 H 198.7117436541318 138.4283539749487 153.63970615049914 H 0.0 **** 0.06
13444 H 197.08190502050257 138.8176920904699 154.24208820378504 H 0.0 **** 0.06
13445 H 198.31748536995855 140.09476247459574 154.128524519432 H 0.0 **** 0.06
13446 C 205.19701716007893 95.62208879253106 304.8602636693008 C 0.0 **** -0.24
13447 H 205.58229751514705 96.59501013053142 304.5546994873655 H 0.0 **** 0.06
13448 H 206.02999435983605 94.96118542720762 305.1004179474275 H 0.0 **** 0.06
13449 H 204.61242573657034 95.19123884535412 304.04787488481986 H 0.0 **** 0.06
13450 H 204.56369851169308 95.74410802960557 305.7393740995349 H 0.0 **** 0.06
13451 C 57.909297134341585 139.30436774434827 65.33032351916546 C 0.0 **** -0.24
13452 H 57.89199120177716 139.40046214004605 64.24420854983478 H 0.0 **** 0.06
13453 H 58.81087399026515 138.77205780710517 65.63299603555711 H 0.0 **** 0.06
13454 H 57.0306924367479 138.74958056231443 65.65889362753887 H 0.0 **** 0.06
13455 H 57.90316582661242 140.29596325090014 65.78246963132392 H 0.0 **** 0.06
13456 C 10.538170408168526 118.96605978963626 309.53497334998076 C 0.0 **** -0.24
13457 H 11.545477939171292 119.08686988545108 309.9337650369023 H 0.0 **** 0.06
13458 H 10.594938033913479 118.70749369672527 308.4768573972863 H 0.0 **** 0.06
13459 H 9.98792952276807 119.89892674449237 309.65155617776855 H 0.0 **** 0.06
13460 H 10.026477103140508 118.1707355445721 310.0771058591849 H 0.0 **** 0.06
13461 C 285.4119864908215 188.74783015523036 287.37250740689626 C 0.0 **** -0.24
13462 H 284.9891225242028 189.2875290408498 288.22023527087714 H 0.0 **** 0.06
13463 H 285.49470558793064 189.42017028832385 286.51920989642076 H 0.0 **** 0.06
13464 H 284.762509003324 187.9113909084001 287.1146804712513 H 0.0 **** 0.06
13465 H 286.40015189416806 188.37187037618241 287.63756160883156 H 0.0 **** 0.06
13466 C 86.72915852093706 263.4083323498354 169.92808494375777 C 0.0 **** -0.24
13467 H 86.43058027752028 262.3821369586574 169.71289106938082 H 0.0 **** 0.06
13468 H 87.49285794340364 263.40833120054486 170.7056764438957 H 0.0 **** 0.06
13469 H 85.86260151317623 263.97472760850843 170.2681580387184 H 0.0 **** 0.06
13470 H 87.13074123235972 263.86600542434655 169.0235049104112 H 0.0 **** 0.06
13471 C 223.68458510169194 252.2737302134392 109.27797181277268 C 0.0 **** -0.24
13472 H 223.55672758034902 252.17031294265644 108.20057881530053 H 0.0 **** 0.06
13473 H 223.05753764085773 251.54324057317444 109.79006235309916 H 0.0 **** 0.06
13474 H 223.39309030354286 253.27878311610561 109.58203889908856 H 0.0 **** 0.06
13475 H 224.72897031749966 252.10295921886052 109.53831223693598 H 0.0 **** 0.06
13476 C 168.44884707930714 207.32046732836343 214.02086190152895 C 0.0 **** -0.24
13477 H 168.88229152434616 208.1086637788714 213.40491740705568 H 0.0 **** 0.06
13478 H 168.40386749535327 206.3948231799995 213.44669197945922 H 0.0 **** 0.06
13479 H 167.44332921694007 207.6084612037759 214.32580074972196 H 0.0 **** 0.06
13480 H 169.06807682902706 207.16932242971336 214.90508703508021 H 0.0 **** 0.06
13481 C 246.76679754845344 263.04709526662475 39.086928318652184 C 0.0 **** -0.24
13482 H 245.70899915359266 262.82817513684876 39.234681102772754 H 0.0 **** 0.06
13483 H 247.1022814364797 263.747233957332 39.85218626586055 H 0.0 **** 0.06
13484 H 246.91139654698466 263.48901892429114 38.101036863804325 H 0.0 **** 0.06
13485 H 247.34225973832253 262.1248236129907 39.15940321006778 H 0.0 **** 0.06
13486 C 165.18715986384433 128.95555147536137 106.99012824105307 C 0.0 **** -0.24
13487 H 166.253887053943 129.09197474548014 106.81082920102583 H 0.0 **** 0.06
13488 H 164.74850867051242 128.3979437000377 106.16210345077286 H 0.0 **** 0.06
13489 H 164.70539106511188 129.929562851225 107.06707632727912 H 0.0 **** 0.06
13490 H 165.04255697313084 128.4033671196866 107.9175573658706 H 0.0 **** 0.06
13491 C 45.76142432897541 174.73052728076152 280.2270297527665 C 0.0 **** -0.24
13492 H 46.16624792427518 174.72179223370495 281.2386699567444 H 0.0 **** 0.06
13493 H 46.557624694788075 174.96020835587098 279.5186838396079 H 0.0 **** 0.06
13494 H 44.98044678028245 175.48736041808075 280.15469704945906 H 0.0 **** 0.06
13495 H 45.34044147659287 173.75098633648605 279.99592948106823 H 0.0 **** 0.06
13496 C 133.19381565496266 33.557962040227466 141.80398708060636 C 0.0 **** -0.24
13497 H 132.66529318487568 32.795136480581476 141.23148422634324 H 0.0 **** 0.06
13498 H 133.73974300153264 34.21029321248639 141.12280449013173 H 0.0 **** 0.06
13499 H 133.89400722913558 33.077610687885056 142.48755762449747 H 0.0 **** 0.06
13500 H 132.47505249407143 34.146090294415785 142.37460606486593 H 0.0 **** 0.06
13501 C 225.16440464809565 240.9109500750076 139.65874316995195 C 0.0 **** -0.24
13502 H 226.20901209973454 241.0165308046146 139.95055531632903 H 0.0 **** 0.06
13503 H 224.6127255243175 241.80369492366287 139.95403138761554 H 0.0 **** 0.06
13504 H 224.73562944619005 240.03927791852576 140.15210087294523 H 0.0 **** 0.06
13505 H 225.10014882397104 240.7855899367149 138.57772218204232 H 0.0 **** 0.06
13506 C 251.4598557354118 18.935533346011127 253.0101131619153 C 0.0 **** -0.24
13507 H 252.2049973249878 18.203669154419757 253.32296803139928 H 0.0 **** 0.06
13508 H 251.14602606470297 19.524997171759935 253.87124479132194 H 0.0 **** 0.06
13509 H 250.5975000312192 18.418229661610326 252.58898267170497 H 0.0 **** 0.06
13510 H 251.89206395547274 19.593599196711367 252.2562771448072 H 0.0 **** 0.06
13511 C 77.82574356627964 117.8083793122448 267.0810353854957 C 0.0 **** -0.24
13512 H 77.78528025127332 116.7404146529305 266.86850408622087 H 0.0 **** 0.06
13513 H 78.857452867 118.09968726260874 267.28178137791275 H 0.0 **** 0.06
13514 H 77.21025521299026 118.0277822057867 267.9538571372118 H 0.0 **** 0.06
13515 H 77.45072259376084 118.36449001464882 266.2220362555024 H 0.0 **** 0.06
13516 C 2.7409871476474166 91.60156416638907 290.1011611993703 C 0.0 **** -0.24
13517 H 2.3531659534040728 92.55889976422213 289.75357865867994 H 0.0 **** 0.06
13518 H 1.9150668991768924 90.97762017690377 290.4425890698444 H 0.0 **** 0.06
13519 H 3.4354424786933038 91.76830929245867 290.92407747839064 H 0.0 **** 0.06
13520 H 3.2595300749999154 91.10135244111603 289.2822919672699 H 0.0 **** 0.06
13521 C 87.9169842267143 284.4670041355517 162.1643017205858 C 0.0 **** -0.24
13522 H 88.51303456683041 284.15911509049187 163.02364488830278 H 0.0 **** 0.06
13523 H 88.34990231750626 285.3669569965361 161.7271688734616 H 0.0 **** 0.06
13524 H 86.89563326088756 284.67309860949865 162.48512819147862 H 0.0 **** 0.06
13525 H 87.91160216309689 283.66892226122803 161.4222635120846 H 0.0 **** 0.06
13526 C 201.4003309461583 30.081719390916163 228.71170876541902 C 0.0 **** -0.24
13527 H 201.53538789631637 29.24664779252069 229.39922196268492 H 0.0 **** 0.06
13528 H 200.75664180578724 30.83085094428077 229.1724044944914 H 0.0 **** 0.06
13529 H 200.9412101054245 29.72380947588516 227.79023011896498 H 0.0 **** 0.06
13530 H 202.37029056507873 30.525265762776257 228.4851755292674 H 0.0 **** 0.06
13531 C 183.92589894675007 189.58708180946604 180.6107902579987 C 0.0 **** -0.24
13532 H 184.52147180152673 189.07594761236197 181.36715733616745 H 0.0 **** 0.06
13533 H 184.54689284857233 190.3169012255794 180.09121683271343 H 0.0 **** 0.06
13534 H 183.08984229116408 190.09546752119348 181.09026140756538 H 0.0 **** 0.06
13535 H 183.54643316060515 188.85724960674895 179.89505914462808 H 0.0 **** 0.06
13536 C 62.69895813076428 92.90178788212282 158.6004106652149 C 0.0 **** -0.24
13537 H 63.776611231406605 93.0292857770184 158.70048278511234 H 0.0 **** 0.06
13538 H 62.24097805968532 93.86004541175163 158.35486817966557 H 0.0 **** 0.06
13539 H 62.28853564643583 92.53269814874045 159.54040720975826 H 0.0 **** 0.06
13540 H 62.48996492029917 92.18474938502519 157.80677600134788 H 0.0 **** 0.06
13541 C 174.55418506911911 157.74560803383469 122.18651903304888 C 0.0 **** -0.24
13542 H 175.2039719333813 158.2111874562699 122.9283088870493 H 0.0 **** 0.06
13543 H 174.9227794736372 157.9749174328419 121.18639168260094 H 0.0 **** 0.06
13544 H 173.5410868537857 158.13086129291037 122.29850241983263 H 0.0 **** 0.06
13545 H 174.55067814042349 156.66494124515145 122.33447629249557 H 0.0 **** 0.06
13546 C 284.35649408119644 289.8390131652434 113.85660406838494 C 0.0 **** -0.24
13547 H 285.41514862311203 290.0842322905123 113.77558253747586 H 0.0 **** 0.06
13548 H 284.12276791621593 289.0114651985209 113.18641096572003 H 0.0 **** 0.06
13549 H 283.76058201932506 290.7096503678092 113.580488093421 H 0.0 **** 0.06
13550 H 284.12670011287037 289.5518918064835 114.88252531578007 H 0.0 **** 0.06
13551 C 293.3345776178815 249.67929736685295 298.29788087378563 C 0.0 **** -0.24
13552 H 293.33342013382577 250.6995321944227 298.68144560930625 H 0.0 **** 0.06
13553 H 293.8476916598099 249.654330051357 297.3364751511274 H 0.0 **** 0.06
13554 H 292.30669527801683 249.33753179089345 298.17072528884154 H 0.0 **** 0.06
13555 H 293.8500439963128 249.0271112712655 299.002637610336 H 0.0 **** 0.06
13556 C 42.08774964192838 209.72895623418984 180.62536561859753 C 0.0 **** -0.24
13557 H 42.999800057724826 209.13443655080408 180.6658344925935 H 0.0 **** 0.06
13558 H 42.05378878394089 210.40020602388847 181.48504971289105 H 0.0 **** 0.06
13559 H 41.22129343778985 209.06758606656447 180.6468481684832 H 0.0 **** 0.06
13560 H 42.07574089732432 210.31528528815622 179.7065596648755 H 0.0 **** 0.06
13561 C 178.90648895270596 23.918624457089578 20.637528467698232 C 0.0 **** -0.24
13562 H 177.98547028500406 24.460139054894256 20.855945291866107 H 0.0 **** 0.06
13563 H 178.71336691482702 22.84589869692539 20.669585857459296 H 0.0 **** 0.06
13564 H 179.66262123099472 24.174093758544814 21.37937060738065 H 0.0 **** 0.06
13565 H 179.26269130007518 24.19353467756042 19.644996550842578 H 0.0 **** 0.06
13566 C 72.50937267707417 20.015229469937182 61.94788516010445 C 0.0 **** -0.24
13567 H 72.27485449099484 21.01722652886403 61.58758186085299 H 0.0 **** 0.06
13568 H 72.06603715731083 19.276221567343725 61.27871082001218 H 0.0 **** 0.06
13569 H 72.1041215759598 19.886854270532794 62.951489515610035 H 0.0 **** 0.06
13570 H 73.59031256403884 19.88200221819423 61.97257937389483 H 0.0 **** 0.06
13571 C 165.98240930871776 33.598636252754034 234.0060230731764 C 0.0 **** -0.24
13572 H 165.0605670451572 33.05404000892315 234.20749792808962 H 0.0 **** 0.06
13573 H 166.04057130231774 34.46935706198053 234.65936357102012 H 0.0 **** 0.06
13574 H 165.99306565687073 33.92307655070988 232.96535055673712 H 0.0 **** 0.06
13575 H 166.83723240680513 32.947615120027876 234.19262508649712 H 0.0 **** 0.06
13576 C 140.35447043306777 73.17670451322243 111.73576749388806 C 0.0 **** -0.24
13577 H 139.94411782841473 72.74215587213504 110.82488574358578 H 0.0 **** 0.06
13578 H 140.37442596633298 74.2628227773485 111.6424763051246 H 0.0 **** 0.06
13579 H 141.36809590191734 72.80679247425633 111.8898870640835 H 0.0 **** 0.06
13580 H 139.73194157458238 72.89618107694656 112.58471435134649 H 0.0 **** 0.06
13581 C 136.9363002083554 153.35545457006504 54.09867465060756 C 0.0 **** -0.24
13582 H 137.71964590233134 153.91502467130033 54.61012570056738 H 0.0 **** 0.06
13583 H 136.95877014113032 152.31594755093522 54.426515482872105 H 0.0 **** 0.06
13584 H 137.10202629260033 153.4002298589516 53.02220895719029 H 0.0 **** 0.06
13585 H 135.96554663615305 153.79078626012569 54.33525692060715 H 0.0 **** 0.06
13586 C 143.60099618395296 293.7299595681323 296.68744534152177 C 0.0 **** -0.24
13587 H 144.24998688814873 292.8877271079476 296.4487155857917 H 0.0 **** 0.06
13588 H 144.13513877081175 294.42853795663393 297.33186002490555 H 0.0 **** 0.06
13589 H 142.71087234790622 293.3688480262914 297.20143887789027 H 0.0 **** 0.06
13590 H 143.30858160184118 294.2359805517071 295.76750196000467 H 0.0 **** 0.06
13591 C 290.533278391359 63.05467283618211 61.48102803729617 C 0.0 **** -0.24
13592 H 290.8135037803458 62.90901922705805 60.43857990910516 H 0.0 **** 0.06
13593 H 289.5290197453521 63.47578609019945 61.53227792447143 H 0.0 **** 0.06
13594 H 291.2386939827761 63.73823658190116 61.95369578496812 H 0.0 **** 0.06
13595 H 290.5530174086376 62.09603314002803 62.00033012508544 H 0.0 **** 0.06
13596 C 63.829405233750066 240.99914453460573 188.72290856853607 C 0.0 **** -0.24
13597 H 63.9313054151761 241.80591632670902 187.99698434452296 H 0.0 **** 0.06
13598 H 62.91057006724327 240.4463534736619 188.52503402830786 H 0.0 **** 0.06
13599 H 63.79129119093952 241.41872868981076 189.72795921614397 H 0.0 **** 0.06
13600 H 64.68326713006505 240.32725914899146 188.6407791782661 H 0.0 **** 0.06
13601 C 191.9073647931503 52.397527085381256 141.6681615735167 C 0.0 **** -0.24
13602 H 192.3876628344268 52.11189932411787 142.60431964029792 H 0.0 **** 0.06
13603 H 190.8278416573558 52.27851791765809 141.7629348243993 H 0.0 **** 0.06
13604 H 192.2738624979434 51.760250751499086 140.86277864533076 H 0.0 **** 0.06
13605 H 192.14146306895287 53.43769783257983 141.44290358551265 H 0.0 **** 0.06
13606 C 14.086309397997525 28.353162286447542 91.01291692997992 C 0.0 **** -0.24
13607 H 14.533353743279008 28.238468076570427 90.02567889412327 H 0.0 **** 0.06
13608 H 14.874485235978142 28.41003096481981 91.76410742157742 H 0.0 **** 0.06
13609 H 13.444920423845431 27.49754807053867 91.22245653000672 H 0.0 **** 0.06
13610 H 13.492714346442952 29.26765674779847 91.0385128341222 H 0.0 **** 0.06
13611 C 22.02967380032308 91.22591215195956 287.16950311769733 C 0.0 **** -0.24
13612 H 22.97758131866098 90.80708091653528 287.50604595127305 H 0.0 **** 0.06
13613 H 21.991860076433085 91.21157759349762 286.07992521966946 H 0.0 **** 0.06
13614 H 21.94135527997966 92.25384020060372 287.52236870051087 H 0.0 **** 0.06
13615 H 21.207659217944297 90.63283195835538 287.57000937126736 H 0.0 **** 0.06
13616 C 296.0392635943206 211.15546291871976 274.1357390197441 C 0.0 **** -0.24
13617 H 295.9892366071554 211.65041853228928 273.1662424555611 H 0.0 **** 0.06
13618 H 295.04074450180616 211.104088583436 274.5705385739381 H 0.0 **** 0.06
13619 H 296.69595109405213 211.7194055799681 274.7987236015299 H 0.0 **** 0.06
13620 H 296.43253747337457 210.1462078096228 274.0074497449258 H 0.0 **** 0.06
13621 C 2.058369180830624 100.06780272702272 215.23861370601057 C 0.0 **** -0.24
13622 H 3.1291924198501846 100.26191711921325 215.29715891901913 H 0.0 **** 0.06
13623 H 1.5787630712027294 100.39107643804516 216.16264316358385 H 0.0 **** 0.06
13624 H 1.889753972703275 99.00064306261103 215.09497001055104 H 0.0 **** 0.06
13625 H 1.6354940764331332 100.61763848446876 214.3977025117516 H 0.0 **** 0.06
13626 C 54.33656054502404 142.87886545394602 202.70160670869296 C 0.0 **** -0.24
13627 H 55.1319423842416 143.54905158129057 203.02777481686917 H 0.0 **** 0.06
13628 H 54.649858509627336 142.3561961445294 201.79745156071726 H 0.0 **** 0.06
13629 H 53.436408005027886 143.4575144017675 202.49415755816813 H 0.0 **** 0.06
13630 H 54.129399568449685 142.152800990296 203.4873936211867 H 0.0 **** 0.06
13631 C 32.32061966987746 95.08785282365946 154.51668982591775 C 0.0 **** -0.24
13632 H 32.05207322292847 94.05042981571827 154.71790528690224 H 0.0 **** 0.06
13633 H 32.300837163544685 95.6552795528373 155.447613514179 H 0.0 **** 0.06
13634 H 31.60816775215679 95.5176870677349 153.8125974048197 H 0.0 **** 0.06
13635 H 33.32227018078689 95.12572521514551 154.08867897894186 H 0.0 **** 0.06
13636 C 176.9459898398893 112.08244798411656 293.01226641998676 C 0.0 **** -0.24
13637 H 177.96401762980366 111.86340239068815 293.3347409120381 H 0.0 **** 0.06
13638 H 176.25728338757352 111.38136035844872 293.4842801020171 H 0.0 **** 0.06
13639 H 176.87880158005441 111.98465765570478 291.9284665574482 H 0.0 **** 0.06
13640 H 176.6846114716866 113.10001535012904 293.3021290646341 H 0.0 **** 0.06
13641 C 101.66730814249723 305.3101784479978 312.35741752032317 C 0.0 **** -0.24
13642 H 102.63289236393598 305.73024174175623 312.6377232234787 H 0.0 **** 0.06
13643 H 101.6168686669561 305.20776884891666 311.27352339165316 H 0.0 **** 0.06
13644 H 100.87121551773419 305.9723975119357 312.6970066719706 H 0.0 **** 0.06
13645 H 101.54887373322813 304.33156010603494 312.8212049453776 H 0.0 **** 0.06
13646 C 179.82857525896657 58.23076632601669 151.06421827575497 C 0.0 **** -0.24
13647 H 180.7936924349533 57.76719966743579 150.8589936640987 H 0.0 **** 0.06
13648 H 179.1545807764944 58.05203149632922 150.22637840526022 H 0.0 **** 0.06
13649 H 179.9631459562002 59.30449804743213 151.20006478451256 H 0.0 **** 0.06
13650 H 179.4043370306727 57.800055338129425 151.97083192969916 H 0.0 **** 0.06
13651 C 30.214506708907976 205.6000198642284 228.23934992660713 C 0.0 **** -0.24
13652 H 31.076970505407132 205.56075872147738 228.904542463604 H 0.0 **** 0.06
13653 H 30.3429054514437 206.4157670895001 227.52726455157205 H 0.0 **** 0.06
13654 H 29.311176075435668 205.76704768794832 228.82498019999963 H 0.0 **** 0.06
13655 H 30.129033341028162 204.65645453976123 227.69928591453356 H 0.0 **** 0.06
13656 C 58.404675484569196 65.46825134324868 106.7197251603663 C 0.0 **** -0.24
13657 H 57.74554378100302 65.32706162400152 105.8619039551445 H 0.0 **** 0.06
13658 H 59.375467987092975 65.82560449660406 106.3766712440146 H 0.0 **** 0.06
13659 H 58.530328762637566 64.51805233244565 107.23993035913412 H 0.0 **** 0.06
13660 H 57.96556843045093 66.19872772015239 107.39792173947194 H 0.0 **** 0.06
13661 C 136.1655050953421 29.911332469003156 215.57746648481591 C 0.0 **** -0.24
13662 H 137.20681147829433 29.762901384512077 215.8634395255928 H 0.0 **** 0.06
13663 H 135.599571279708 30.268536949440374 216.4386559133489 H 0.0 **** 0.06
13664 H 135.74471907403168 28.96696982274122 215.23312847700996 H 0.0 **** 0.06
13665 H 136.11069191383618 30.647265959192396 214.77632432791268 H 0.0 **** 0.06
13666 C 171.26329106661706 19.31124601109495 69.15376142468656 C 0.0 **** -0.24
13667 H 171.6773168904789 18.334755101837473 68.90423293480168 H 0.0 **** 0.06
13668 H 170.21474266817648 19.200023341459698 69.43434498595732 H 0.0 **** 0.06
13669 H 171.3410558855992 19.970476329280558 68.28896643611668 H 0.0 **** 0.06
13670 H 171.81883651874728 19.739046253889114 69.98775395984694 H 0.0 **** 0.06
13671 C 149.35948175787934 117.25614426451133 200.0243746070604 C 0.0 **** -0.24
13672 H 149.80523906170765 116.91590535241849 199.08947340344383 H 0.0 **** 0.06
13673 H 148.28059046585997 117.34841788002882 199.89885763368977 H 0.0 **** 0.06
13674 H 149.77811859312027 118.22506788385544 200.29453116403874 H 0.0 **** 0.06
13675 H 149.57341934104926 116.53435067125034 200.81240256821349 H 0.0 **** 0.06
13676 C 153.03085147059005 26.636332217513484 26.678653489589635 C 0.0 **** -0.24
13677 H 152.08189246154495 26.277287380840505 26.278868597948758 H 0.0 **** 0.06
13678 H 152.8402323354744 27.37616046281667 27.45625419934379 H 0.0 **** 0.06
13679 H 153.61331920464943 27.091239714411245 25.87884235681952 H 0.0 **** 0.06
13680 H 153.5858155312248 25.798921811546876 27.101847362854073 H 0.0 **** 0.06
13681 C 265.9532803405779 85.9990270256279 274.0936722853233 C 0.0 **** -0.24
13682 H 265.7571047704354 86.25367609708303 273.0524247914786 H 0.0 **** 0.06
13683 H 266.0067287268954 84.91613764888979 274.19914840140996 H 0.0 **** 0.06
13684 H 265.1490872637537 86.38673479877772 274.7197350072631 H 0.0 **** 0.06
13685 H 266.9003334325142 86.4423681946349 274.4036874550629 H 0.0 **** 0.06
13686 C 34.7033066023472 197.81144613065237 275.00834737907536 C 0.0 **** -0.24
13687 H 33.979388753266676 198.38902359168276 274.4329139969466 H 0.0 **** 0.06
13688 H 34.33363599804758 196.79423269370523 275.14031639465213 H 0.0 **** 0.06
13689 H 34.844981859755336 198.27698213662688 275.9837420166026 H 0.0 **** 0.06
13690 H 35.65411789524154 197.787186668508 274.4761099199804 H 0.0 **** 0.06
13691 C 97.7627366144329 168.2320823466514 51.36621324887682 C 0.0 **** -0.24
13692 H 97.79655854170747 167.24134904509526 50.91193804959042 H 0.0 **** 0.06
13693 H 97.5447791125473 168.13604525122207 52.43021407447529 H 0.0 **** 0.06
13694 H 96.9839353044521 168.82459260524826 50.886648382952444 H 0.0 **** 0.06
13695 H 98.72562809995776 168.72419103201952 51.23544486085669 H 0.0 **** 0.06
13696 C 264.8228278824523 208.82806323492855 303.39210280343787 C 0.0 **** -0.24
13697 H 264.45876362013365 208.71478322483756 304.413517119315 H 0.0 **** 0.06
13698 H 265.66304053542893 209.52347322711427 303.3813791131065 H 0.0 **** 0.06
13699 H 264.0220638519257 209.2154190634871 302.7627326610263 H 0.0 **** 0.06
13700 H 265.1478364123523 207.85929980165906 303.01399539637987 H 0.0 **** 0.06
13701 C 265.10144316238586 111.95980578881088 138.31350336290112 C 0.0 **** -0.24
13702 H 265.09349419802317 111.58864086708209 137.28792120055004 H 0.0 **** 0.06
13703 H 266.1230121272539 111.95167271641111 138.69362315106525 H 0.0 **** 0.06
13704 H 264.4759032630057 111.32023606944563 138.93601421200034 H 0.0 **** 0.06
13705 H 264.71428127383786 112.97793256949944 138.33319790191612 H 0.0 **** 0.06
13706 C 98.09026205597866 205.50899079643403 215.84546879818157 C 0.0 **** -0.24
13707 H 97.82157721955323 205.84401856847364 216.84707960013188 H 0.0 **** 0.06
13708 H 98.28598767674367 204.43669793687326 215.86195685319638 H 0.0 **** 0.06
13709 H 98.98571576666612 206.03704513623546 215.51461592247975 H 0.0 **** 0.06
13710 H 97.27055027053467 205.71892185437542 215.1595410451195 H 0.0 **** 0.06
13711 C 31.082534281554956 137.48773856412225 169.3538376652682 C 0.0 **** -0.24
13712 H 31.188818316084962 137.91590198734886 170.34998531078986 H 0.0 **** 0.06
13713 H 30.237242075387996 137.95334185180835 168.8468455393638 H 0.0 **** 0.06
13714 H 30.911523656545057 136.41488473881165 169.43570573265544 H 0.0 **** 0.06
13715 H 31.993217307033547 137.66807414178743 168.7828018907568 H 0.0 **** 0.06
13716 C 161.81373333566597 147.47705529749567 288.026308000451 C 0.0 **** -0.24
13717 H 161.488807363759 146.66338757248957 287.37808790300016 H 0.0 **** 0.06
13718 H 161.16245921331807 148.33889432843424 287.882534393803 H 0.0 **** 0.06
13719 H 162.83991011078007 147.75074804978016 287.7797641781153 H 0.0 **** 0.06
13720 H 161.76441418002497 147.15327883146122 289.0670614685487 H 0.0 **** 0.06
13721 C 276.2769855515368 249.7405399817733 179.15884789805682 C 0.0 **** -0.24
13722 H 276.3596168757738 249.62866851007308 178.07789314105617 H 0.0 **** 0.06
13723 H 275.9615719294778 250.75768779691623 179.39523513851162 H 0.0 **** 0.06
13724 H 277.24492845200575 249.54355579076656 179.62033909246236 H 0.0 **** 0.06
13725 H 275.5406911786916 249.03384928096426 179.54299657290903 H 0.0 **** 0.06
13726 C 232.54822946702393 24.808118384154938 279.92355677638557 C 0.0 **** -0.24
13727 H 231.87062621300896 25.568471609211173 279.53381948271067 H 0.0 **** 0.06
13728 H 233.5782536707813 25.09918114556595 279.7160671108286 H 0.0 **** 0.06
13729 H 232.33623980404855 23.85364162931438 279.44376739710515 H 0.0 **** 0.06
13730 H 232.40663646882933 24.713332733153294 281.0006851152026 H 0.0 **** 0.06
13731 C 138.73296350010554 184.16562500998032 63.8331618710377 C 0.0 **** -0.24
13732 H 138.5045068915828 185.21367835794234 64.02992089442017 H 0.0 **** 0.06
13733 H 139.81115474422666 184.01411567128844 63.882150749370396 H 0.0 **** 0.06
13734 H 138.37279394538933 183.89629375258966 62.83992981426488 H 0.0 **** 0.06
13735 H 138.24403053203324 183.54130023918538 64.58013608572887 H 0.0 **** 0.06
13736 C 57.80557864770665 65.53971869688351 286.9233495058394 C 0.0 **** -0.24
13737 H 56.83142466220309 66.01622395589754 286.81683144471947 H 0.0 **** 0.06
13738 H 57.88113099392169 65.0840426883768 287.9110425612589 H 0.0 **** 0.06
13739 H 58.59074632723812 66.2880840244105 286.8068488167342 H 0.0 **** 0.06
13740 H 57.92026444395319 64.77172077171852 286.1586445278093 H 0.0 **** 0.06
13741 C 109.84631438268673 21.501488913866808 52.14878937150365 C 0.0 **** -0.24
13742 H 110.84922232986293 21.110204809919765 51.978358303755385 H 0.0 **** 0.06
13743 H 109.53596454699186 22.089836213706917 51.28456614234335 H 0.0 **** 0.06
13744 H 109.8493222502218 22.13327510882118 53.03664099400112 H 0.0 **** 0.06
13745 H 109.15324433199328 20.673540832023548 52.29336538071283 H 0.0 **** 0.06
13746 C 2.465230453125855 1.0266467173625244 59.38075427330952 C 0.0 **** -0.24
13747 H 1.677233293060695 1.7666516447372373 59.24047051199108 H 0.0 **** 0.06
13748 H 2.520430376062521 0.3840611579317681 58.500680340036695 H 0.0 **** 0.06
13749 H 2.243511686271276 0.42223987676264585 60.26008271452116 H 0.0 **** 0.06
13750 H 3.4198074207920683 1.5345179084435188 59.51891728076433 H 0.0 **** 0.06
13751 C 282.8408348100519 199.4964796482284 309.1824888257365 C 0.0 **** -0.24
13752 H 283.25628047167174 200.39706628595354 308.7315565080545 H 0.0 **** 0.06
13753 H 283.27871433572136 199.34961708729446 310.17064481878504 H 0.0 **** 0.06
13754 H 283.0675412091168 198.63656654234785 308.5523404240582 H 0.0 **** 0.06
13755 H 281.7601560026665 199.60292573059235 309.2761312100826 H 0.0 **** 0.06
13756 C 21.422638117067095 111.48479561756369 293.49333545243735 C 0.0 **** -0.24
13757 H 20.66149113644569 111.15262096936732 292.7873031392847 H 0.0 **** 0.06
13758 H 21.157813335002345 112.47151876862793 293.87538730124334 H 0.0 **** 0.06
13759 H 22.388179584398614 111.53795689053385 292.9895270488359 H 0.0 **** 0.06
13760 H 21.482857633162013 110.77952229184433 294.32126328059746 H 0.0 **** 0.06
13761 C 47.59994249297716 92.7993102396035 54.208804636579 C 0.0 **** -0.24
13762 H 47.485850286719824 91.92104920856929 54.844486067286255 H 0.0 **** 0.06
13763 H 48.074136378711216 92.50866393756237 53.27057639006321 H 0.0 **** 0.06
13764 H 48.22149799277085 93.53703773984321 54.71697611275587 H 0.0 **** 0.06
13765 H 46.62012478843829 93.22922050190573 54.00324739940666 H 0.0 **** 0.06
13766 C 159.3596881747307 42.87177525151887 146.51611373325431 C 0.0 **** -0.24
13767 H 158.4980585907104 43.508958486792324 146.71520751596952 H 0.0 **** 0.06
13768 H 159.20065588293602 42.32627856779027 145.5862887792273 H 0.0 **** 0.06
13769 H 159.48603556346944 42.16566115624562 147.33672665732 H 0.0 **** 0.06
13770 H 160.2537322093782 43.48886759122934 146.4275831867705 H 0.0 **** 0.06
13771 C 151.4437273510727 33.540572212340095 50.376653790696025 C 0.0 **** -0.24
13772 H 152.05205640997684 33.81734763888548 49.5157319195707 H 0.0 **** 0.06
13773 H 152.05278290139415 32.980657708137244 51.08578595822891 H 0.0 **** 0.06
13774 H 150.6078994657433 32.9239193517044 50.046651754306595 H 0.0 **** 0.06
13775 H 151.06309255193304 34.44275848527931 50.85659694706439 H 0.0 **** 0.06
13776 C 86.28045417711468 139.80065152336903 237.69562078141502 C 0.0 **** -0.24
13777 H 86.54735524019219 138.93744518105987 238.30486702107882 H 0.0 **** 0.06
13778 H 86.19575266120182 139.4968752177305 236.65184496115097 H 0.0 **** 0.06
13779 H 87.05118322026638 140.56472880301183 237.79021991878403 H 0.0 **** 0.06
13780 H 85.32617444413577 140.20411232114142 238.0346206736694 H 0.0 **** 0.06
13781 C 108.99843265548495 233.7636343736446 252.83794418924478 C 0.0 **** -0.24
13782 H 109.32645277161751 233.8296356333688 251.80107294248685 H 0.0 **** 0.06
13783 H 107.91228223373179 233.67670431864227 252.8708345825188 H 0.0 **** 0.06
13784 H 109.30779184137666 234.66145221774718 253.3747629400309 H 0.0 **** 0.06
13785 H 109.44772135199526 232.8874419942279 253.3062228827438 H 0.0 **** 0.06
13786 C 52.42293145717758 96.89132150487782 254.29385541062786 C 0.0 **** -0.24
13787 H 52.620685419023744 97.77878018545937 253.69208733737895 H 0.0 **** 0.06
13788 H 51.739774930302985 96.23344069559599 253.75551318118454 H 0.0 **** 0.06
13789 H 51.97261111596123 97.18814323160325 255.24090493487915 H 0.0 **** 0.06
13790 H 53.35912150321556 96.36671157932733 254.48531029994916 H 0.0 **** 0.06
13791 C 23.95228329961583 217.72485914057611 186.4252225896259 C 0.0 **** -0.24
13792 H 23.975020489154872 218.5831517932362 187.09640966535056 H 0.0 **** 0.06
13793 H 24.59940841360492 216.93975710297036 186.81668680085693 H 0.0 **** 0.06
13794 H 24.301908851769383 218.0262521333632 185.43790370188276 H 0.0 **** 0.06
13795 H 22.930650775020126 217.35088496899687 186.34971988126193 H 0.0 **** 0.06
13796 C 238.66162274934294 123.46253342585237 41.700107993825355 C 0.0 **** -0.24
13797 H 238.5604896294954 124.53494815733134 41.53167673700099 H 0.0 **** 0.06
13798 H 238.600364394029 123.25568464486079 42.76889625583152 H 0.0 **** 0.06
13799 H 239.6249132572206 123.12449156254013 41.319003752120096 H 0.0 **** 0.06
13800 H 237.85921541158945 122.9364148505347 41.18172101025584 H 0.0 **** 0.06
13801 C 313.75985229014606 248.2146728524784 43.96740646538521 C 0.0 **** -0.24
13802 H 313.2603588077178 248.17086387266087 44.93514784793146 H 0.0 **** 0.06
13803 H 313.3056451634205 247.49012511954135 43.29169290359465 H 0.0 **** 0.06
13804 H 314.81706578643866 247.98085380552322 44.09378537012722 H 0.0 **** 0.06
13805 H 313.6558053772136 249.21661365937658 43.54981190866994 H 0.0 **** 0.06
13806 C 192.3334401389215 175.7811971402221 124.68127676705487 C 0.0 **** -0.24
13807 H 191.90001611268968 176.57070081905556 124.06713190984857 H 0.0 **** 0.06
13808 H 193.2881974936879 176.1192802408989 125.08627870351864 H 0.0 **** 0.06
13809 H 192.49106452701233 174.89288752390058 124.07120224792575 H 0.0 **** 0.06
13810 H 191.65512788927708 175.54483141748545 125.50082120447627 H 0.0 **** 0.06
13811 C 154.68829035970356 66.99268094439131 44.44653354231755 C 0.0 **** -0.24
13812 H 154.57968898567316 68.02172616674648 44.789214183877476 H 0.0 **** 0.06
13813 H 155.74624947684907 66.73750944110526 44.39263218179099 H 0.0 **** 0.06
13814 H 154.23819402700008 66.88966862428279 43.458804780812784 H 0.0 **** 0.06
13815 H 154.1876000175609 66.32279157479473 45.145598463388296 H 0.0 **** 0.06
13816 C 175.36232226139805 274.05619639198005 306.9226118325212 C 0.0 **** -0.24
13817 H 175.1044652352765 273.0491531262564 307.2546449294472 H 0.0 **** 0.06
13818 H 175.8405148205174 274.00339603102935 305.9446469317263 H 0.0 **** 0.06
13819 H 176.04756787190382 274.509483708659 307.6397167181696 H 0.0 **** 0.06
13820 H 174.45690268243573 274.65767337947847 306.8532204663351 H 0.0 **** 0.06
13821 C 155.15430313029117 247.30029258753206 155.92843238161606 C 0.0 **** -0.24
13822 H 154.9180802340449 247.1533769051482 154.8742815964684 H 0.0 **** 0.06
13823 H 154.77332881717462 248.267840928858 156.2544555825421 H 0.0 **** 0.06
13824 H 156.23501824466365 247.26861662889348 156.06575981450442 H 0.0 **** 0.06
13825 H 154.68959783945877 246.50894816568996 156.51753284303913 H 0.0 **** 0.06
13826 C 84.13678170772727 84.70905652722269 59.110050045759124 C 0.0 **** -0.24
13827 H 84.02789204975343 84.34056935124292 60.129728715847165 H 0.0 **** 0.06
13828 H 83.42526765912689 84.19610774901028 58.46110114921407 H 0.0 **** 0.06
13829 H 85.15149698767962 84.51795404872374 58.76009705508875 H 0.0 **** 0.06
13830 H 83.94059985290178 85.78107333712848 59.088164218481666 H 0.0 **** 0.06
13831 C 1.1363960950151437 256.8289516741553 185.52360709227855 C 0.0 **** -0.24
13832 H 0.7837241388284326 255.80597511337885 185.39568995740092 H 0.0 **** 0.06
13833 H 2.1512036121959426 256.9150528665948 185.13441865407015 H 0.0 **** 0.06
13834 H 1.131467747761718 257.0844022193096 186.58323017631153 H 0.0 **** 0.06
13835 H 0.480341850971314 257.5101828554072 184.98236753954285 H 0.0 **** 0.06
13836 C 149.06609500588615 155.7385546806181 268.3988646197993 C 0.0 **** -0.24
13837 H 149.33149443313403 155.95407593540875 267.36411195349405 H 0.0 **** 0.06
13838 H 148.2868187674187 154.9758879397276 268.42299639964983 H 0.0 **** 0.06
13839 H 148.70120552200385 156.64751826851398 268.87735412993885 H 0.0 **** 0.06
13840 H 149.946165303027 155.37622168189398 268.93118165397743 H 0.0 **** 0.06
13841 C 149.43842286644684 284.86786356585617 155.06666808713794 C 0.0 **** -0.24
13842 H 148.40809338019156 284.52568303761507 155.16031093407742 H 0.0 **** 0.06
13843 H 149.80058941125577 284.6593911733403 154.05947842792943 H 0.0 **** 0.06
13844 H 150.06221239694554 284.3459613874794 155.79255588092184 H 0.0 **** 0.06
13845 H 149.48376687733327 285.9404618962163 155.25409031178282 H 0.0 **** 0.06
13846 C 17.38976764900255 283.40834540535536 285.9325596191256 C 0.0 **** -0.24
13847 H 18.3602598044952 283.47491042928704 286.42378810095073 H 0.0 **** 0.06
13848 H 17.080772136846633 284.40049692302154 285.6040044669809 H 0.0 **** 0.06
13849 H 16.654834910191568 283.0124921188022 286.63396777279104 H 0.0 **** 0.06
13850 H 17.464233621107596 282.74597150014114 285.0706460651803 H 0.0 **** 0.06
13851 C 199.33696164696994 58.174384555795484 230.28452640581435 C 0.0 **** -0.24
13852 H 199.96203862158626 58.07948005227536 231.17266956030358 H 0.0 **** 0.06
13853 H 198.45584532266696 57.542491151370314 230.39215119171845 H 0.0 **** 0.06
13854 H 199.90299394503813 57.86357424205596 229.4071218636289 H 0.0 **** 0.06
13855 H 199.02714303383613 59.21375427330952 230.1685851513248 H 0.0 **** 0.06
13856 C 137.1618588886884 63.803941928296865 224.58612115717244 C 0.0 **** -0.24
13857 H 136.16077511153355 63.89145500254588 224.16521371142375 H 0.0 **** 0.06
13858 H 137.1257144629683 64.01190091167183 225.65540970143638 H 0.0 **** 0.06
13859 H 137.8243586171987 64.5192869744362 224.09829441859947 H 0.0 **** 0.06
13860 H 137.53674802518765 62.79270588545393 224.4242256459591 H 0.0 **** 0.06
13861 C 88.17328479949242 202.53106515193997 13.201001749177294 C 0.0 **** -0.24
13862 H 87.44377784101266 201.8901978154692 12.705386972944439 H 0.0 **** 0.06
13863 H 88.92545789095607 202.85122778404366 12.47872002589645 H 0.0 **** 0.06
13864 H 88.65572757216603 201.9767667900623 14.00635735341416 H 0.0 **** 0.06
13865 H 87.66881449189907 203.4048382373923 13.613260955319276 H 0.0 **** 0.06
13866 C 262.31470579936575 60.848662809851334 151.05792971327185 C 0.0 **** -0.24
13867 H 262.1856138509581 61.9309670745009 151.07680029551096 H 0.0 **** 0.06
13868 H 263.070353427291 60.58559824092376 150.318267600316 H 0.0 **** 0.06
13869 H 261.36839675860085 60.37409083308725 150.7966559255609 H 0.0 **** 0.06
13870 H 262.6338856112468 60.504740427684396 152.0420237102615 H 0.0 **** 0.06
13871 C 104.4629700336107 229.37381909868913 288.32627745294786 C 0.0 **** -0.24
13872 H 104.50307806586756 230.21743696097252 287.637377897762 H 0.0 **** 0.06
13873 H 104.91075296755196 229.66170884334124 289.2779203970413 H 0.0 **** 0.06
13874 H 105.01465163544594 228.5335612129801 287.90404475859435 H 0.0 **** 0.06
13875 H 103.42437651568142 229.08457141222146 288.4855841653134 H 0.0 **** 0.06
13876 C 311.4542966819075 110.58606706628339 270.4368285382932 C 0.0 **** -0.24
13877 H 310.76762749463376 110.67796499912859 269.59530875410076 H 0.0 **** 0.06
13878 H 312.473258202431 110.47594410539406 270.0641709093138 H 0.0 **** 0.06
13879 H 311.1866865502558 109.70990464178257 271.0284116503093 H 0.0 **** 0.06
13880 H 311.38864165183037 111.4784691293824 271.05908839062914 H 0.0 **** 0.06
13881 C 118.10857774047125 255.43312706751922 117.54361220054548 C 0.0 **** -0.24
13882 H 117.87941020589986 254.39256289724156 117.31599015838961 H 0.0 **** 0.06
13883 H 119.17085796834223 255.61515854213718 117.37785148765857 H 0.0 **** 0.06
13884 H 117.86269625495879 255.63934261318252 118.58542398531497 H 0.0 **** 0.06
13885 H 117.52203186720138 256.08423115982316 116.89542569224099 H 0.0 **** 0.06
13886 C 111.90499487444481 246.13242727137933 150.63878913119572 C 0.0 **** -0.24
13887 H 112.48033572919937 245.2599986697066 150.94839950787383 H 0.0 **** 0.06
13888 H 111.07422322288576 246.28374061637567 151.32834992376206 H 0.0 **** 0.06
13889 H 111.51741010136894 245.9735790723252 149.6323624600517 H 0.0 **** 0.06
13890 H 112.54810419308791 247.0122462493515 150.6450595737826 H 0.0 **** 0.06
13891 C 25.028912346713184 110.59935913651213 90.23125524962018 C 0.0 **** -0.24
13892 H 24.936636228622348 109.59707288199502 90.64941996753728 H 0.0 **** 0.06
13893 H 25.938572826412724 111.0670906281511 90.60570338484862 H 0.0 **** 0.06
13894 H 24.165194252032478 111.19566663601105 90.52471013052133 H 0.0 **** 0.06
13895 H 25.07340636726576 110.53600962425381 89.14343657127517 H 0.0 **** 0.06
13896 C 296.59950665034694 89.72489286355577 201.08192619396794 C 0.0 **** -0.24
13897 H 295.91758234092373 90.33419133804614 200.48888829088065 H 0.0 **** 0.06
13898 H 297.59950873005204 90.1556011641955 201.04094392715592 H 0.0 **** 0.06
13899 H 296.6227845405177 88.71095314508966 200.6796417825738 H 0.0 **** 0.06
13900 H 296.25624538562977 89.69712987932078 202.1158871549643 H 0.0 **** 0.06
13901 C 294.64374921175323 304.81509773272154 274.74577732705995 C 0.0 **** -0.24
13902 H 294.98494191562645 303.7823137455677 274.8135425290027 H 0.0 **** 0.06
13903 H 294.9064628681797 305.3447406781276 275.6615274213605 H 0.0 **** 0.06
13904 H 293.5616921692615 304.8313177588184 274.61414595163296 H 0.0 **** 0.06
13905 H 295.12091621428044 305.3003592886984 273.89442121863374 H 0.0 **** 0.06
13906 C 57.80783893811986 253.2508135871729 145.03185402601946 C 0.0 **** -0.24
13907 H 58.39290851049205 254.03441968231175 144.5494408862402 H 0.0 **** 0.06
13908 H 58.12180437262677 252.2781582073903 144.6539035461277 H 0.0 **** 0.06
13909 H 56.74994939020195 253.40215695103794 144.81343413693932 H 0.0 **** 0.06
13910 H 57.964880124953936 253.29176147739093 146.11018870994525 H 0.0 **** 0.06
13911 C 27.779384313412606 273.69895417260517 253.0407002066684 C 0.0 **** -0.24
13912 H 28.15541069791243 273.1015356550631 252.20992067828152 H 0.0 **** 0.06
13913 H 27.55892513727656 274.7075971587121 252.6931956427246 H 0.0 **** 0.06
13914 H 28.533554578261487 273.74136859237115 253.82727415984402 H 0.0 **** 0.06
13915 H 26.870898777562047 273.2429102026964 253.43369419782897 H 0.0 **** 0.06
13916 C 151.0503136829057 99.3925785977138 191.38437800354563 C 0.0 **** -0.24
13917 H 151.62719547776527 98.47084008573654 191.31756591903456 H 0.0 **** 0.06
13918 H 150.47340451916915 99.52761541213897 190.4688064711042 H 0.0 **** 0.06
13919 H 151.72675242366 100.23645330150143 191.5155094596983 H 0.0 **** 0.06
13920 H 150.37168198309462 99.33565428776095 192.23553896927547 H 0.0 **** 0.06
13921 C 219.5132608407737 134.6635696788351 127.43207245216959 C 0.0 **** -0.24
13922 H 218.51471844166235 134.59514038798548 127.00014090630123 H 0.0 **** 0.06
13923 H 219.84257016134583 133.67150269792168 127.74334376973869 H 0.0 **** 0.06
13924 H 219.49076514165216 135.32718734583793 128.29624597852197 H 0.0 **** 0.06
13925 H 220.2035049712185 135.05940046295976 126.68725611264563 H 0.0 **** 0.06
13926 C 236.42251103406534 52.46521483464079 185.04755336917367 C 0.0 **** -0.24
13927 H 236.65823248067937 53.52548206258197 184.95236850691214 H 0.0 **** 0.06
13928 H 237.34737137504348 51.89435902709701 185.13365417703864 H 0.0 **** 0.06
13929 H 235.87175158391344 52.135698202823846 184.1674373766782 H 0.0 **** 0.06
13930 H 235.8137323260686 52.307559972387224 185.93845447695855 H 0.0 **** 0.06
13931 C 135.95811033757445 177.72603926631797 278.0961471362964 C 0.0 **** -0.24
13932 H 135.5633602083312 176.78297100896174 277.7177889085119 H 0.0 **** 0.06
13933 H 137.04207859433646 177.73958871002662 277.97988199325215 H 0.0 **** 0.06
13934 H 135.70380416055463 177.82914806072404 279.1509003270752 H 0.0 **** 0.06
13935 H 135.5225650376617 178.55311150557498 277.5356168944766 H 0.0 **** 0.06
13936 C 310.3198969724256 283.60899471662833 24.026920645836583 C 0.0 **** -0.24
13937 H 309.75239455285873 282.67924417241613 24.0700400196568 H 0.0 **** 0.06
13938 H 310.7980637057549 283.78710232209295 24.989658201987197 H 0.0 **** 0.06
13939 H 309.64640771246707 284.4342351197342 23.79614620470312 H 0.0 **** 0.06
13940 H 311.080761749514 283.5334771613858 23.251151845051822 H 0.0 **** 0.06
13941 C 236.6973427743372 263.10021253076025 279.41859435343326 C 0.0 **** -0.24
13942 H 236.3320189771432 264.08868901819926 279.69710486846526 H 0.0 **** 0.06
13943 H 236.02652314174526 262.3389385077811 279.8197006272044 H 0.0 **** 0.06
13944 H 237.69698008732254 262.95480852711654 279.82618024761086 H 0.0 **** 0.06
13945 H 236.7317852102645 263.0185826035299 278.3327004273826 H 0.0 **** 0.06
13946 C 42.081405636041495 70.31537224679928 164.49792167051862 C 0.0 **** -0.24
13947 H 41.57522248115845 70.70055579971998 165.3823856825838 H 0.0 **** 0.06
13948 H 43.10231309751043 70.69528053976816 164.46949649179663 H 0.0 **** 0.06
13949 H 41.54716427093865 70.63909676472355 163.6046087629797 H 0.0 **** 0.06
13950 H 42.099984721918474 69.22626930223785 164.53539089415648 H 0.0 **** 0.06
13951 C 310.38859823296104 273.8108196538801 58.54805484478126 C 0.0 **** -0.24
13952 H 310.69954254342235 274.6817829425631 59.12553206371342 H 0.0 **** 0.06
13953 H 310.0619660355983 274.1290058369243 57.557120781123416 H 0.0 **** 0.06
13954 H 309.5665321845481 273.3109799098816 59.059510598811926 H 0.0 **** 0.06
13955 H 311.22805906988 273.12173916249276 58.449871677176844 H 0.0 **** 0.06
13956 C 97.80216139549336 299.01959740119787 290.0145489569267 C 0.0 **** -0.24
13957 H 98.05717201754547 298.84939943085084 291.0604077342922 H 0.0 **** 0.06
13958 H 97.04985880898084 298.2959522911636 289.7014516542232 H 0.0 **** 0.06
13959 H 98.69541439408474 298.90540635573 289.40046522053586 H 0.0 **** 0.06
13960 H 97.4080273692318 300.0289292299647 289.8978657235839 H 0.0 **** 0.06
13961 C 281.90121468739136 300.12375990655033 172.30439320270233 C 0.0 **** -0.24
13962 H 281.2728436936657 300.27710612126305 171.42738853913636 H 0.0 **** 0.06
13963 H 281.36548055558313 300.4520354696949 173.19542880658213 H 0.0 **** 0.06
13964 H 282.8195849193422 300.7012195942989 172.19932286846569 H 0.0 **** 0.06
13965 H 282.1445428787117 299.0651341932395 172.3954225426507 H 0.0 **** 0.06
13966 C 123.51250410457621 209.2974816018812 222.15920228098815 C 0.0 **** -0.24
13967 H 122.87668936508393 209.6617208699227 221.3523542644166 H 0.0 **** 0.06
13968 H 123.54935995757745 210.0399500389727 222.95592909286407 H 0.0 **** 0.06
13969 H 124.5178601977795 209.12234719692498 221.77782528848266 H 0.0 **** 0.06
13970 H 123.10404692068121 208.3650606057526 222.54968168841836 H 0.0 **** 0.06
13971 C 96.22427267992342 9.675208256678559 282.0348611625752 C 0.0 **** -0.24
13972 H 95.79438221045979 8.844696159044958 282.59422793575715 H 0.0 **** 0.06
13973 H 97.16777364451312 9.362407932028148 281.5870026592869 H 0.0 **** 0.06
13974 H 96.40023052603834 10.514571437894688 282.70768999426 H 0.0 **** 0.06
13975 H 95.53245784436146 9.97950373860408 281.24856614857265 H 0.0 **** 0.06
13976 C 311.7374004169575 111.54521914912993 72.59944460307653 C 0.0 **** -0.24
13977 H 312.3050537189275 110.71225098942523 72.18458062059099 H 0.0 **** 0.06
13978 H 312.4159878464347 112.23076550373085 73.10697454890754 H 0.0 **** 0.06
13979 H 311.0035215546283 111.16606848725695 73.31066674929735 H 0.0 **** 0.06
13980 H 311.22498990167554 112.07198831462964 71.79356677964799 H 0.0 **** 0.06
13981 C 165.68917895088703 84.78882288432999 89.4418746170156 C 0.0 **** -0.24
13982 H 165.41195194546907 83.74640159415128 89.60438430692122 H 0.0 **** 0.06
13983 H 166.15093258382865 84.8921365188271 88.46040163156115 H 0.0 **** 0.06
13984 H 166.39519866582424 85.10037500594149 90.2112534474648 H 0.0 **** 0.06
13985 H 164.79752976422935 85.41298702661459 89.49259145108101 H 0.0 **** 0.06
13986 C 169.6405712336914 218.56130396664162 102.52150033476198 C 0.0 **** -0.24
13987 H 169.616237048885 219.14959891981655 101.60444458752951 H 0.0 **** 0.06
13988 H 170.42808537724358 217.81045848895914 102.45074091046902 H 0.0 **** 0.06
13989 H 168.67920640743108 218.06724534156203 102.6618359871822 H 0.0 **** 0.06
13990 H 169.83984961113111 219.21703016496886 103.36913683196241 H 0.0 **** 0.06
13991 C 271.9294111911647 237.98967214885425 54.411708729576844 C 0.0 **** -0.24
13992 H 271.706559468038 239.01650502874514 54.12106857733079 H 0.0 **** 0.06
13993 H 271.7264127174998 237.86236302974993 55.475657207501115 H 0.0 **** 0.06
13994 H 272.9791192091085 237.77503310608836 54.21326099115237 H 0.0 **** 0.06
13995 H 271.3035440824214 237.30616451230992 53.83828565615141 H 0.0 **** 0.06
13996 C 23.24550194266476 168.78993565480346 140.804300167736 C 0.0 **** -0.24
13997 H 23.745370281667675 168.9807109217682 139.85464402409573 H 0.0 **** 0.06
13998 H 23.172032264822064 167.71391168989584 140.96584269715734 H 0.0 **** 0.06
13999 H 22.246353565430667 169.22358556708093 140.781747602667 H 0.0 **** 0.06
14000 H 23.819167156595938 169.2409200890417 141.61363051413534 H 0.0 **** 0.06
14001 C 254.23414618892713 105.66063758798435 163.96670580530423 C 0.0 **** -0.24
14002 H 254.62943387093696 105.39928019192595 162.98465931259176 H 0.0 **** 0.06
14003 H 253.16993582377413 105.88479283448595 163.8817229676025 H 0.0 **** 0.06
14004 H 254.76050550712833 106.5351229973576 164.3483974138282 H 0.0 **** 0.06
14005 H 254.3760612761407 104.82397641880925 164.64976476300336 H 0.0 **** 0.06
14006 C 94.43871247324765 28.329353668869686 121.27671332587968 C 0.0 **** -0.24
14007 H 95.13251793203645 29.17081286581265 121.29355857401839 H 0.0 **** 0.06
14008 H 94.97645862220259 27.410984879278402 121.5130926758302 H 0.0 **** 0.06
14009 H 93.99383510903183 28.245900533763262 120.28557153424873 H 0.0 **** 0.06
14010 H 93.65401691987077 28.491099980764915 122.01504344463237 H 0.0 **** 0.06
14011 C 299.004964628577 199.8907613103019 195.0553910716814 C 0.0 **** -0.24
14012 H 299.48920092066436 199.72229319963589 194.0934471754456 H 0.0 **** 0.06
14013 H 299.00874271740565 198.9645714124154 195.63013740648285 H 0.0 **** 0.06
14014 H 297.97721580534113 200.21313508948634 194.8920850791872 H 0.0 **** 0.06
14015 H 299.54578994157777 200.6615513503474 195.6033299727183 H 0.0 **** 0.06
14016 C 56.433262846184306 292.89389699011497 263.1817302113292 C 0.0 **** -0.24
14017 H 56.84285277510696 292.9053213458012 262.17214023517636 H 0.0 **** 0.06
14018 H 55.91537306056702 291.9499353450184 263.35345655018597 H 0.0 **** 0.06
14019 H 55.732206564718524 293.7203278024049 263.29894178552036 H 0.0 **** 0.06
14020 H 57.243615095862026 292.9997557737923 263.90335511502184 H 0.0 **** 0.06
14021 C 137.09446585383608 34.746797261232075 302.65996147480803 C 0.0 **** -0.24
14022 H 137.05335152578112 35.487812301834424 303.45894687917036 H 0.0 **** 0.06
14023 H 136.82499334385724 33.76884508316101 303.05870632213123 H 0.0 **** 0.06
14024 H 138.10469638217927 34.708751926604094 302.2522873616391 H 0.0 **** 0.06
14025 H 136.39535207439093 35.02424339768473 301.87118969934 H 0.0 **** 0.06
14026 C 275.07359178434086 155.21014537819104 119.06966870014236 C 0.0 **** -0.24
14027 H 274.3123546804419 155.88224064941699 119.46541782101801 H 0.0 **** 0.06
14028 H 275.0968505203757 155.28901646105822 117.98245908994457 H 0.0 **** 0.06
14029 H 274.83617750381956 154.1851273004417 119.35452963104035 H 0.0 **** 0.06
14030 H 276.0476540024286 155.48415821009075 119.47515990114957 H 0.0 **** 0.06
14031 C 62.30620737356142 225.18933423225081 80.99920302648718 C 0.0 **** -0.24
14032 H 62.633238476304655 226.21515890037088 80.82435519016005 H 0.0 **** 0.06
14033 H 61.37489092146504 225.1981779828105 81.56500051818216 H 0.0 **** 0.06
14034 H 63.07102505403029 224.65602609146686 81.56310079128443 H 0.0 **** 0.06
14035 H 62.14643095048194 224.69165690503365 80.04299012128507 H 0.0 **** 0.06
14036 C 10.187499284343573 110.45444779902854 141.70556440828088 C 0.0 **** -0.24
14037 H 9.32003665849139 110.14347710463295 142.28647245898273 H 0.0 **** 0.06
14038 H 11.08026044448492 110.40585300956772 142.33087266637588 H 0.0 **** 0.06
14039 H 10.043623539716933 111.47648344126486 141.35547546990523 H 0.0 **** 0.06
14040 H 10.307516979641235 109.79011581760855 140.84875980446944 H 0.0 **** 0.06
14041 C 33.09655453275931 299.19998655156843 18.623336391796315 C 0.0 **** -0.24
14042 H 32.14130451605479 299.58780448218226 18.270463886253154 H 0.0 **** 0.06
14043 H 33.841908686473516 299.2939720441351 17.83281993524878 H 0.0 **** 0.06
14044 H 32.98457795780064 298.15039925093504 18.894705317152926 H 0.0 **** 0.06
14045 H 33.418952530487644 299.768535251358 19.49642359427088 H 0.0 **** 0.06
14046 C 200.1073978654792 43.88747332285044 30.44631063595162 C 0.0 **** -0.24
14047 H 199.84330730474488 44.46715901622349 31.33057305218105 H 0.0 **** 0.06
14048 H 200.59834355931758 44.53543338545012 29.720366814508367 H 0.0 **** 0.06
14049 H 199.20361964229141 43.46591306479843 30.00544532135794 H 0.0 **** 0.06
14050 H 200.78397110112172 43.08094008561733 30.730152400308214 H 0.0 **** 0.06
14051 C 254.87892903812593 84.34677618296132 180.6155455496338 C 0.0 **** -0.24
14052 H 254.9455167960091 83.56484632927607 179.85886125233128 H 0.0 **** 0.06
14053 H 254.22977991967423 84.01349514147955 181.4254563600333 H 0.0 **** 0.06
14054 H 254.46802079522368 85.25162265387914 180.16802054599367 H 0.0 **** 0.06
14055 H 255.87415015971402 84.5554753219676 181.01024283381093 H 0.0 **** 0.06
14056 C 175.84257947048684 243.86036361130977 114.96249784433533 C 0.0 **** -0.24
14057 H 176.46915992149405 244.50974098333245 115.5728946919269 H 0.0 **** 0.06
14058 H 174.94578472124408 243.59187866659877 115.52032071889656 H 0.0 **** 0.06
14059 H 176.39628791234918 242.9565560113938 114.70756621574267 H 0.0 **** 0.06
14060 H 175.55993323614035 244.3834088065237 114.0486957970067 H 0.0 **** 0.06
14061 C 3.385670211563564 20.231010794190468 157.3733909783552 C 0.0 **** -0.24
14062 H 3.927495607636857 20.973741248767766 156.78787662181026 H 0.0 **** 0.06
14063 H 2.385668663087742 20.603576381166164 157.5953417301996 H 0.0 **** 0.06
14064 H 3.9185980204899664 20.0436386978285 158.3060404311293 H 0.0 **** 0.06
14065 H 3.311134734651233 19.3043249096459 156.80495357551234 H 0.0 **** 0.06
14066 C 153.5828887090987 3.854331748186027 260.53753403117395 C 0.0 **** -0.24
14067 H 152.59300366183277 3.9052365134943443 260.99326054700447 H 0.0 **** 0.06
14068 H 153.61978293413637 3.014917659480858 259.84397210254514 H 0.0 **** 0.06
14069 H 154.3338547803428 3.7184056095438365 261.3154031666531 H 0.0 **** 0.06
14070 H 153.78178984147166 4.780899293365465 259.9991426558388 H 0.0 **** 0.06
14071 C 2.7849161949981607 247.30592412087026 311.89087135561056 C 0.0 **** -0.24
14072 H 3.1757320715615265 247.26839004410115 310.87388094510624 H 0.0 **** 0.06
14073 H 3.614502531386748 247.31643459616367 312.5988483304272 H 0.0 **** 0.06
14074 H 2.1611022855602045 246.43107606528494 312.07329787377785 H 0.0 **** 0.06
14075 H 2.188170815349366 248.20998375910375 312.01636827657404 H 0.0 **** 0.06
14076 C 9.77443723588273 67.3064586946364 134.93220490401666 C 0.0 **** -0.24
14077 H 10.60083485190394 67.92658058664048 134.58593165061416 H 0.0 **** 0.06
14078 H 10.168308705898212 66.38569727357358 135.36400813041826 H 0.0 **** 0.06
14079 H 9.12439830557183 67.06376438282999 134.09186020812547 H 0.0 **** 0.06
14080 H 9.205449707354163 67.84810816033769 135.68780625291322 H 0.0 **** 0.06
14081 C 256.5000967872432 92.52910547527017 145.40263781152223 C 0.0 **** -0.24
14082 H 257.4875854593641 92.59110584543467 144.94668450148896 H 0.0 **** 0.06
14083 H 256.54267846752873 91.87146940693285 146.27168956980978 H 0.0 **** 0.06
14084 H 255.78952667109192 92.12960134747581 144.67995952495025 H 0.0 **** 0.06
14085 H 256.181275869873 93.52362918951371 145.71448898407652 H 0.0 **** 0.06
14086 C 282.5797862933965 138.67521711149834 232.6683866894236 C 0.0 **** -0.24
14087 H 282.6471772596287 137.97380637375912 233.50068999336452 H 0.0 **** 0.06
14088 H 282.12202921083735 139.6032369199464 233.01210029409128 H 0.0 **** 0.06
14089 H 281.97122574267 138.23998994885346 231.87656681291458 H 0.0 **** 0.06
14090 H 283.5795197662184 138.88209046561454 232.2872400692519 H 0.0 **** 0.06
14091 C 155.3562760465024 59.952288960601834 202.0332846549312 C 0.0 **** -0.24
14092 H 156.21954184483502 60.34955362831235 202.56647157497468 H 0.0 **** 0.06
14093 H 155.0260201891379 60.67512529758801 201.28816785703498 H 0.0 **** 0.06
14094 H 154.54814740466605 59.763578703055714 202.74067626593074 H 0.0 **** 0.06
14095 H 155.6316242977873 59.02019576013507 201.5390286891543 H 0.0 **** 0.06
14096 C 132.57614926302244 281.0021472516403 307.49298096076143 C 0.0 **** -0.24
14097 H 132.89585783691058 281.7181093866353 306.73541380085214 H 0.0 **** 0.06
14098 H 131.54026720172203 281.20089598583695 307.76671375543594 H 0.0 **** 0.06
14099 H 133.21054140284718 281.09954931215196 308.3744943217199 H 0.0 **** 0.06
14100 H 132.66050426310915 279.9911752387992 307.09426530595533 H 0.0 **** 0.06
14101 C 272.4685169566982 238.541096657768 48.792287190923986 C 0.0 **** -0.24
14102 H 272.5959255787648 237.45953158328703 48.74758392224368 H 0.0 **** 0.06
14103 H 273.2803714816944 238.979484012397 49.37313063802759 H 0.0 **** 0.06
14104 H 271.51441072431805 238.77489567704632 49.26456959112451 H 0.0 **** 0.06
14105 H 272.4831013441137 238.94982348110113 47.7815176656718 H 0.0 **** 0.06
14106 C 7.778653832978023 157.90035044501423 152.74903839385183 C 0.0 **** -0.24
14107 H 7.802165648518269 156.9691655457844 153.31442607005346 H 0.0 **** 0.06
14108 H 8.278717139303524 157.75593042433627 151.79030698925044 H 0.0 **** 0.06
14109 H 8.29107694273955 158.6807493536371 153.31200060559667 H 0.0 **** 0.06
14110 H 6.743491600822779 158.19636340654324 152.57813540683043 H 0.0 **** 0.06
14111 C 187.94290239240678 214.88910720168246 133.31539183425542 C 0.0 **** -0.24
14112 H 188.97314813542988 214.81068379552232 133.6636371954199 H 0.0 **** 0.06
14113 H 187.31644888686031 215.27131145723348 134.12114568056427 H 0.0 **** 0.06
14114 H 187.58615488032956 213.9044599689051 133.0134507987144 H 0.0 **** 0.06
14115 H 187.89736546364725 215.56809835123272 132.465385513288 H 0.0 **** 0.06
14116 C 121.94313200510987 192.17613896452247 41.74339846138801 C 0.0 **** -0.24
14117 H 122.8090913332303 192.02265023403345 42.38671642164755 H 0.0 **** 0.06
14118 H 121.38344156149387 191.24434699646503 41.66008167429962 H 0.0 **** 0.06
14119 H 122.27656753499295 192.49018341898875 40.754834263529204 H 0.0 **** 0.06
14120 H 121.30336016613921 192.9472161506191 42.17336511119993 H 0.0 **** 0.06
14121 C 282.68453208374325 233.17469517923888 147.86334142581526 C 0.0 **** -0.24
14122 H 282.99883934701165 234.09771600959215 147.37667435411674 H 0.0 **** 0.06
14123 H 281.8840705107625 232.71266038261973 147.28385935064395 H 0.0 **** 0.06
14124 H 282.3231593117919 233.3978391067103 148.86734235141847 H 0.0 **** 0.06
14125 H 283.5298729651836 232.4902760152892 147.92511962968936 H 0.0 **** 0.06
14126 C 191.8779821694772 54.7161811442474 95.03867575237837 C 0.0 **** -0.24
14127 H 190.9636590805237 55.06438584426468 94.55758519079924 H 0.0 **** 0.06
14128 H 192.22699122550716 55.47182249000048 95.74355885783527 H 0.0 **** 0.06
14129 H 192.64320001022406 54.54383088070679 94.28203290974352 H 0.0 **** 0.06
14130 H 191.67712731742654 53.787338344497385 95.57049782967749 H 0.0 **** 0.06
14131 C 273.38330053429456 244.36743112179767 125.06481928828126 C 0.0 **** -0.24
14132 H 274.38707497761357 244.604195216472 124.71257082690892 H 0.0 **** 0.06
14133 H 272.6735736549224 244.4927313762358 124.2470546808934 H 0.0 **** 0.06
14134 H 273.1186995011925 245.03772405999896 125.88173789728444 H 0.0 **** 0.06
14135 H 273.3557197075197 243.33678979437445 125.41602306694207 H 0.0 **** 0.06
14136 C 239.36216487682222 51.346706301388224 273.8465174981076 C 0.0 **** -0.24
14137 H 240.0312817450598 50.82491751308223 273.1621569001728 H 0.0 **** 0.06
14138 H 238.88990743332215 50.62472151770257 274.514090892886 H 0.0 **** 0.06
14139 H 238.5955315861567 51.87113870957819 273.2762268736832 H 0.0 **** 0.06
14140 H 239.93278580781958 52.06609631574622 274.4347267422329 H 0.0 **** 0.06
14141 C 214.38177941833752 279.62278685285753 9.966875488404341 C 0.0 **** -0.24
14142 H 214.6094921649694 279.1559156462353 10.925185214816594 H 0.0 **** 0.06
14143 H 213.30835707900633 279.5711041400957 9.783712363957903 H 0.0 **** 0.06
14144 H 214.911486125475 279.0970163490233 9.172649116153806 H 0.0 **** 0.06
14145 H 214.69828210862295 280.66550112370265 9.986352270127568 H 0.0 **** 0.06
14146 C 286.9136964832421 151.4979318537121 42.25547455993137 C 0.0 **** -0.24
14147 H 286.6341804758128 150.95039839827956 43.15508350982756 H 0.0 **** 0.06
14148 H 287.85830031325713 151.11114021284584 41.87314593083815 H 0.0 **** 0.06
14149 H 287.02333752651816 152.55643306341415 42.49361188453878 H 0.0 **** 0.06
14150 H 286.13720716908114 151.37464777953994 41.49973271426262 H 0.0 **** 0.06
14151 C 95.16432630946451 153.54192301227192 185.91156291358726 C 0.0 **** -0.24
14152 H 95.17371584479801 154.61983928165557 185.7452598476906 H 0.0 **** 0.06
14153 H 94.13491317717592 153.2035570713615 186.034296153566 H 0.0 **** 0.06
14154 H 95.73395869831046 153.3082982304491 186.81046043178708 H 0.0 **** 0.06
14155 H 95.61288955141521 153.03878355130126 185.05485815019352 H 0.0 **** 0.06
14156 C 43.92368162918157 58.31225464730238 233.78512311232873 C 0.0 **** -0.24
14157 H 43.63766787047149 57.61523331995258 234.5723109840652 H 0.0 **** 0.06
14158 H 43.89378040080234 57.80319793657432 232.82112283366172 H 0.0 **** 0.06
14159 H 44.9339604900255 58.677730487148324 233.97223641735388 H 0.0 **** 0.06
14160 H 43.22931775542688 59.1528568455343 233.77482221423412 H 0.0 **** 0.06
14161 C 249.53478530022176 47.70453859184693 164.43754259584534 C 0.0 **** -0.24
14162 H 250.5483576535524 47.62346678728113 164.04475283352593 H 0.0 **** 0.06
14163 H 249.27474575102366 48.756042730369046 164.5551768809757 H 0.0 **** 0.06
14164 H 249.47930009537743 47.204637936701715 165.4044500764299 H 0.0 **** 0.06
14165 H 248.83898949861452 47.233313627735384 163.74393349707697 H 0.0 **** 0.06
14166 C 42.6179431256553 260.3111726092808 244.51882903411285 C 0.0 **** -0.24
14167 H 43.1903900100491 260.5511792679008 245.41512068347475 H 0.0 **** 0.06
14168 H 42.452346862622704 259.2347831233366 244.47299343313568 H 0.0 **** 0.06
14169 H 43.17196848256924 260.631654902806 243.63683960621455 H 0.0 **** 0.06
14170 H 41.65830472455198 260.8266715289499 244.55218096561896 H 0.0 **** 0.06
14171 C 111.75281732578972 253.41648438941013 209.22669692483177 C 0.0 **** -0.24
14172 H 112.65816661108741 253.97027794439902 209.4773854265609 H 0.0 **** 0.06
14173 H 110.97532811740632 253.64339279883725 209.95626011958348 H 0.0 **** 0.06
14174 H 111.96558798127853 252.34797810780378 209.24077954167507 H 0.0 **** 0.06
14175 H 111.41368340783905 253.70668814828375 208.2323150496826 H 0.0 **** 0.06
14176 C 180.82838167140017 21.51091610956908 137.23145647249754 C 0.0 **** -0.24
14177 H 180.18917001701283 22.096282454852485 137.89284066887757 H 0.0 **** 0.06
14178 H 181.61782396982335 21.036348220172243 137.81495242736966 H 0.0 **** 0.06
14179 H 181.2742878383852 22.167261754666157 136.48329977767204 H 0.0 **** 0.06
14180 H 180.23230555498964 20.745757766226163 136.73496345211115 H 0.0 **** 0.06
14181 C 268.355067705373 96.64801870615523 262.1021380590163 C 0.0 **** -0.24
14182 H 268.4136999731039 97.47418870455556 261.3929809928813 H 0.0 **** 0.06
14183 H 269.03637446136486 95.85505436637837 261.79211223032075 H 0.0 **** 0.06
14184 H 267.33625976127405 96.26314497971279 262.1258431466194 H 0.0 **** 0.06
14185 H 268.6336497269471 97.00107212893957 263.0946161112154 H 0.0 **** 0.06
14186 C 256.5494251111836 192.07046584458425 253.44314617200874 C 0.0 **** -0.24
14187 H 256.67147895555377 192.79704599741257 254.24601508249998 H 0.0 **** 0.06
14188 H 257.497738593522 191.94548321648494 252.91968439158663 H 0.0 **** 0.06
14189 H 255.79159680871754 192.4251455978772 252.7442435402954 H 0.0 **** 0.06
14190 H 256.2368860869412 191.11418856656206 253.86264167365294 H 0.0 **** 0.06
14191 C 154.6335801157274 290.5649713811828 23.324678392092352 C 0.0 **** -0.24
14192 H 155.05889372382046 291.27383088028836 24.035382899545766 H 0.0 **** 0.06
14193 H 153.6636363010087 290.2252399356009 23.688076096888494 H 0.0 **** 0.06
14194 H 155.30215400989118 289.7108293880231 23.219560595121948 H 0.0 **** 0.06
14195 H 154.5095822489106 291.0509521771304 22.357443911523404 H 0.0 **** 0.06
14196 C 62.17871493242663 25.247346559068433 158.3890397859618 C 0.0 **** -0.24
14197 H 61.85681302951474 24.93063816385188 157.39735823229285 H 0.0 **** 0.06
14198 H 62.388983414714545 24.367990885334734 158.99923493678835 H 0.0 **** 0.06
14199 H 61.38910462886972 25.834870080212085 158.85766120174986 H 0.0 **** 0.06
14200 H 63.080199073486654 25.853757064257536 158.30254127964378 H 0.0 **** 0.06
14201 C 171.84143490059222 51.1934106003383 120.24970970521602 C 0.0 **** -0.24
14202 H 170.81815671370975 51.14760385113374 120.62314088545253 H 0.0 **** 0.06
14203 H 171.99504207065473 50.40415545358729 119.51281588178685 H 0.0 **** 0.06
14204 H 172.53650282674045 51.05909634983749 121.07778615370722 H 0.0 **** 0.06
14205 H 172.01454847041373 52.16346576193504 119.78394686376174 H 0.0 **** 0.06
14206 C 60.18197564197763 270.0771416911786 111.63385755626672 C 0.0 **** -0.24
14207 H 60.69341751544141 270.7999062340229 112.26810748114221 H 0.0 **** 0.06
14208 H 60.733859002789956 269.95723206272896 110.70114066960647 H 0.0 **** 0.06
14209 H 59.17431401764097 270.4311462126406 111.41721684574043 H 0.0 **** 0.06
14210 H 60.126656144731015 269.1178607412386 112.14883150118118 H 0.0 **** 0.06
14211 C 301.7831950921809 266.4090070323229 149.1868406626877 C 0.0 **** -0.24
14212 H 300.92208661600006 265.9825997709837 148.6713337334785 H 0.0 **** 0.06
14213 H 301.8127932801618 267.4848739811901 149.01366558744945 H 0.0 **** 0.06
14214 H 302.69665606538763 265.9532163405951 148.8055989506501 H 0.0 **** 0.06
14215 H 301.6996297782487 266.21465162991234 150.2558042555296 H 0.0 **** 0.06
14216 C 152.34314126571513 245.7054082148522 192.43195859733902 C 0.0 **** -0.24
14217 H 153.00920014598745 246.5564627794805 192.29622710470773 H 0.0 **** 0.06
14218 H 151.48502157271741 245.8046005040377 191.76700308497652 H 0.0 **** 0.06
14219 H 151.9990114558252 245.67471901843453 193.46627924490934 H 0.0 **** 0.06
14220 H 152.87812472996455 244.78426481507682 192.20033199881004 H 0.0 **** 0.06
14221 C 218.43207867309636 39.01175108970398 53.676290543931856 C 0.0 **** -0.24
14222 H 217.6427058711369 39.531085700159366 54.21887462760611 H 0.0 **** 0.06
14223 H 219.38711699371385 39.184330069116925 54.17323888659587 H 0.0 **** 0.06
14224 H 218.47973576225732 39.38932828515121 52.65504149896563 H 0.0 **** 0.06
14225 H 218.21903607311796 37.94304698425154 53.6600814703761 H 0.0 **** 0.06
14226 C 154.30919948905648 299.6565800769991 91.49156896748298 C 0.0 **** -0.24
14227 H 154.38632562053783 300.6341096222266 91.96705492492643 H 0.0 **** 0.06
14228 H 155.07816383670348 299.5643491778536 90.72432738564737 H 0.0 **** 0.06
14229 H 153.32520514354917 299.55159754456383 91.03432816999978 H 0.0 **** 0.06
14230 H 154.44644677197465 298.87701653093313 92.24061583436017 H 0.0 **** 0.06
14231 C 60.31078877651311 231.85131889706022 214.96662698897194 C 0.0 **** -0.24
14232 H 59.86110463885203 230.8951303159721 215.2344607514566 H 0.0 **** 0.06
14233 H 61.21230047904527 232.00727690926914 215.56152959563403 H 0.0 **** 0.06
14234 H 59.60137791972497 232.65503071253337 215.16348963980016 H 0.0 **** 0.06
14235 H 60.5709468827734 231.84680329659406 213.9075761288172 H 0.0 **** 0.06
14236 C 105.49190575182547 82.03136949536463 134.93259995766178 C 0.0 **** -0.24
14237 H 105.4595802798334 83.04489811415186 134.53106893887278 H 0.0 **** 0.06
14238 H 106.49960505858144 81.63012640453468 134.82495963581948 H 0.0 **** 0.06
14239 H 104.78931985811698 81.40229234704196 134.385819056015 H 0.0 **** 0.06
14240 H 105.21842260399325 82.0500457213526 135.987569870209 H 0.0 **** 0.06
14241 C 108.46754726367837 287.30758076052166 313.24158094302163 C 0.0 **** -0.24
14242 H 108.95126273002032 287.84493409014357 314.05735915874675 H 0.0 **** 0.06
14243 H 107.87764577384672 288.00462416692744 312.64633471486707 H 0.0 **** 0.06
14244 H 107.814989456651 286.5367761394944 313.65158325338217 H 0.0 **** 0.06
14245 H 109.22662291805861 286.84357784769225 312.6123585700402 H 0.0 **** 0.06
14246 C 30.005383060202576 250.81058950483913 39.780162970714315 C 0.0 **** -0.24
14247 H 29.73882293034285 250.00929705560782 39.0905526020679 H 0.0 **** 0.06
14248 H 30.356700435938023 251.67460954028104 39.21500738554826 H 0.0 **** 0.06
14249 H 30.795557280608364 250.46809887708895 40.44755432267766 H 0.0 **** 0.06
14250 H 29.129999197362167 251.09092461651284 40.36685341058126 H 0.0 **** 0.06
14251 C 2.754182925409424 161.87215398107685 271.6450699480473 C 0.0 **** -0.24
14252 H 2.479737236358048 161.25394058571032 272.4992614413373 H 0.0 **** 0.06
14253 H 3.7506416214885547 162.28528092185792 271.801631590248 H 0.0 **** 0.06
14254 H 2.035630202847287 162.68479318702953 271.53843573379896 H 0.0 **** 0.06
14255 H 2.7510795958608156 161.26342980786228 270.7402436633563 H 0.0 **** 0.06
14256 C 205.51803292984857 196.69678347110892 133.00242120458628 C 0.0 **** -0.24
14257 H 205.90835555962047 195.74960845214645 132.62873272104184 H 0.0 **** 0.06
14258 H 205.16065909898776 197.29686378761102 132.16481872458567 H 0.0 **** 0.06
14259 H 206.30842672425706 197.2341135132947 133.5246389912498 H 0.0 **** 0.06
14260 H 204.6941395775305 196.50368135162256 133.6891538043233 H 0.0 **** 0.06
14261 C 28.662520530357227 263.4700338964533 101.35657715308386 C 0.0 **** -0.24
14262 H 29.024757555617782 262.6421514597055 100.74640147176356 H 0.0 **** 0.06
14263 H 28.382188989501714 264.30233819761634 100.70961955372417 H 0.0 **** 0.06
14264 H 29.450006991699468 263.7891352301168 102.03924307541115 H 0.0 **** 0.06
14265 H 27.79427412961266 263.1459729731015 101.92920098202475 H 0.0 **** 0.06
14266 C 5.321166456144482 110.42601264727136 26.08857340573448 C 0.0 **** -0.24
14267 H 6.006607921500816 109.7637033966576 26.61705406062157 H 0.0 **** 0.06
14268 H 4.827466255029748 109.87357185439836 25.288875566995813 H 0.0 **** 0.06
14269 H 5.877445160125433 111.26140990884679 25.664781282717968 H 0.0 **** 0.06
14270 H 4.572348362367876 110.80322801169135 26.785254381855452 H 0.0 **** 0.06
14271 C 17.27237634945277 284.1404739591186 144.28424757799655 C 0.0 **** -0.24
14272 H 17.76967491136668 283.1858511198367 144.11723345348878 H 0.0 **** 0.06
14273 H 16.84127069302683 284.15611256991906 145.28563346777588 H 0.0 **** 0.06
14274 H 16.48200408200303 284.2728072368562 143.54558802778965 H 0.0 **** 0.06
14275 H 17.99844178119342 284.9486360601901 144.18813637359136 H 0.0 **** 0.06
14276 C 152.9272026881054 110.96215739795068 0.7403439399043918 C 0.0 **** -0.24
14277 H 153.3172837460951 110.01468713065375 1.1114237268769784 H 0.0 **** 0.06
14278 H 152.15908860384957 111.33033252694665 1.420825519501875 H 0.0 **** 0.06
14279 H 152.49548373899745 110.81452363689468 -0.24965069253403271 H 0.0 **** 0.06
14280 H 153.73695466347948 111.68908629730771 0.6787772057726897 H 0.0 **** 0.06
14281 C 128.05507611841466 201.93600826887018 195.331479399797 C 0.0 **** -0.24
14282 H 128.4614824159778 200.9243230026202 195.29273404362573 H 0.0 **** 0.06
14283 H 127.67857864510648 202.2135489590978 194.34658744079638 H 0.0 **** 0.06
14284 H 128.83922710221535 202.63097986234914 195.63015156825975 H 0.0 **** 0.06
14285 H 127.24118494868844 201.97232060121877 196.05555669398274 H 0.0 **** 0.06
14286 C 117.66230889811368 210.16903453935063 262.78641954099567 C 0.0 **** -0.24
14287 H 118.41646978449421 210.67616388027733 263.38876540669423 H 0.0 **** 0.06
14288 H 117.50068769001791 209.16396740265023 263.17776720197924 H 0.0 **** 0.06
14289 H 118.00497409122622 210.10648223412085 261.75288815257 H 0.0 **** 0.06
14290 H 116.72839775030008 210.72895646641916 262.82631628121106 H 0.0 **** 0.06
14291 C 217.44696583688346 191.06009690879284 150.98395615616238 C 0.0 **** -0.24
14292 H 217.45479580216067 190.98900368335836 149.896904276533 H 0.0 **** 0.06
14293 H 218.27182929237978 191.69231176889053 151.31260490545674 H 0.0 **** 0.06
14294 H 217.55862076650072 190.06434797989618 151.41381148088004 H 0.0 **** 0.06
14295 H 216.50194730408487 191.49348261898774 151.31260057244737 H 0.0 **** 0.06
14296 C 60.43338024973386 229.6304638493285 202.8506153372055 C 0.0 **** -0.24
14297 H 60.69939007156577 230.04784878033183 201.87881137048726 H 0.0 **** 0.06
14298 H 60.554556630633016 230.39392589064687 203.61867089721403 H 0.0 **** 0.06
14299 H 61.084271937584475 228.7843483759423 203.0729775876896 H 0.0 **** 0.06
14300 H 59.39720952720552 229.29532548819262 202.83051919785208 H 0.0 **** 0.06
14301 C 161.35514759269535 100.62054287590885 126.6242860658518 C 0.0 **** -0.24
14302 H 161.06888755698878 100.73136356189295 127.67088643093518 H 0.0 **** 0.06
14303 H 162.3062688977821 100.09043959198459 126.56217223796764 H 0.0 **** 0.06
14304 H 161.4582089877406 101.60634204499914 126.17107453052608 H 0.0 **** 0.06
14305 H 160.5878995064054 100.05589579829737 126.09525827976117 H 0.0 **** 0.06
14306 C 13.577056402256162 76.79522457569763 164.276946076532 C 0.0 **** -0.24
14307 H 14.640347871208988 77.01005300661345 164.37926099840405 H 0.0 **** 0.06
14308 H 13.446964503738059 75.80737933565968 163.83375623632253 H 0.0 **** 0.06
14309 H 13.113446400911698 77.54573217328314 163.63668170714635 H 0.0 **** 0.06
14310 H 13.106429871402156 76.81725399440313 165.26000748070703 H 0.0 **** 0.06
14311 C 110.9837364037987 192.81515766715904 157.03124382607973 C 0.0 **** -0.24
14312 H 110.29872892422821 192.00786935089127 156.77477419611398 H 0.0 **** 0.06
14313 H 110.47989861099597 193.77290448547842 156.90220561839493 H 0.0 **** 0.06
14314 H 111.85616032788684 192.77227537821636 156.37919094780761 H 0.0 **** 0.06
14315 H 111.30015775208369 192.70758145404994 158.06880454200257 H 0.0 **** 0.06
14316 C 158.25521636755104 82.59804402621111 290.512268202752 C 0.0 **** -0.24
14317 H 157.97248540168175 81.80915466806925 289.81571158002714 H 0.0 **** 0.06
14318 H 158.08902708937518 82.2567166693365 291.5347495551071 H 0.0 **** 0.06
14319 H 157.65126757397178 83.48529892490666 290.3221657317803 H 0.0 **** 0.06
14320 H 159.30930744097282 82.84089855519426 290.37714959666596 H 0.0 **** 0.06
14321 C 176.78976463685524 147.14324436172328 106.52661688966964 C 0.0 **** -0.24
14322 H 176.423593195521 146.79348964090528 107.49145286393025 H 0.0 **** 0.06
14323 H 177.82550101674263 146.82973749161883 106.3965209901144 H 0.0 **** 0.06
14324 H 176.73253331276095 148.23208615325402 106.49045768942955 H 0.0 **** 0.06
14325 H 176.17756773924793 146.72012369113014 105.73066889939199 H 0.0 **** 0.06
14326 C 191.34740977962895 309.14552867746653 306.8593578115585 C 0.0 **** -0.24
14327 H 192.11207353987277 308.67050172896563 306.2458057957706 H 0.0 **** 0.06
14328 H 190.8800766849361 309.9535664941876 306.2964004277871 H 0.0 **** 0.06
14329 H 191.8043052514484 309.54872086468663 307.7632698311496 H 0.0 **** 0.06
14330 H 190.59113687836583 308.40854010470423 307.132395353564 H 0.0 **** 0.06
14331 C 80.42677579288889 128.201214097873 205.0864266064313 C 0.0 **** -0.24
14332 H 80.28445203061642 128.04578291610653 206.1557738108226 H 0.0 **** 0.06
14333 H 80.50703876582745 129.2687762943265 204.88158480950102 H 0.0 **** 0.06
14334 H 79.57567561742755 127.78929337641279 204.54374422921842 H 0.0 **** 0.06
14335 H 81.33937255147578 127.69890744993447 204.7651392913986 H 0.0 **** 0.06
14336 C 142.76452478881572 111.21055386165884 106.71856135172803 C 0.0 **** -0.24
14337 H 143.05195504229835 110.31589017380912 107.27014822729444 H 0.0 **** 0.06
14338 H 143.31546011736683 111.25118469430319 105.77834076375117 H 0.0 **** 0.06
14339 H 142.99446659952739 112.09409861430126 107.31452258064442 H 0.0 **** 0.06
14340 H 141.69384732513933 111.1808271417892 106.51181404391056 H 0.0 **** 0.06
14341 C 29.241568089457473 39.27654651557302 110.43016182717002 C 0.0 **** -0.24
14342 H 30.160299549621016 38.839783125545466 110.03846858513202 H 0.0 **** 0.06
14343 H 28.61852046839283 38.48908268819392 110.85509562882774 H 0.0 **** 0.06
14344 H 28.70264744027287 39.770988477361584 109.62222926298585 H 0.0 **** 0.06
14345 H 29.485430567107414 40.00396762631476 111.2034327775037 H 0.0 **** 0.06
14346 C 262.5962875135573 181.6543196707845 79.35679947369991 C 0.0 **** -0.24
14347 H 263.58007115743953 181.7656154447381 78.90095592350232 H 0.0 **** 0.06
14348 H 262.07021106616577 180.82447402784288 78.88617103758637 H 0.0 **** 0.06
14349 H 262.02641217654445 182.5727344650927 79.21711871541754 H 0.0 **** 0.06
14350 H 262.7098467023683 181.4559188394927 80.42199230379265 H 0.0 **** 0.06
14351 C 296.2085213114527 7.824915531767829 20.322840752165447 C 0.0 **** -0.24
14352 H 295.1908703197816 8.20120072463449 20.42456223583504 H 0.0 **** 0.06
14353 H 296.8792036598254 8.424257081153883 20.93960752385766 H 0.0 **** 0.06
14354 H 296.51720928955785 7.890706982358154 19.279654016230154 H 0.0 **** 0.06
14355 H 296.24634393676126 6.785872896156917 20.64792257895128 H 0.0 **** 0.06
14356 C 199.4637516924979 219.04878979844466 94.7293134148791 C 0.0 **** -0.24
14357 H 199.38703545472396 219.6941067218488 95.60422657386971 H 0.0 **** 0.06
14358 H 198.50340047469717 219.02159714143474 94.21281708829093 H 0.0 **** 0.06
14359 H 199.73654074001024 218.0419047339741 95.04385267829392 H 0.0 **** 0.06
14360 H 200.22727437703224 219.4395853922373 94.05689445112779 H 0.0 **** 0.06
14361 C 234.1347473807907 162.22536263080718 135.90774363221243 C 0.0 **** -0.24
14362 H 234.17685791322032 161.2196575996731 136.32572262993884 H 0.0 **** 0.06
14363 H 235.14167420181053 162.55384798261673 135.64963105569305 H 0.0 **** 0.06
14364 H 233.70703823215948 162.90624431069415 136.64366915303495 H 0.0 **** 0.06
14365 H 233.51352102811333 162.22070608807746 135.0119744172979 H 0.0 **** 0.06
14366 C 111.4757764766324 267.3586080450156 265.2565767640712 C 0.0 **** -0.24
14367 H 111.21790201106842 267.1041232794287 264.2282190358985 H 0.0 **** 0.06
14368 H 111.0842820161148 266.59408173388323 265.9291739437826 H 0.0 **** 0.06
14369 H 111.04227024817291 268.3251662268042 265.51189612812146 H 0.0 **** 0.06
14370 H 112.55996984939625 267.4086622833584 265.35630465799886 H 0.0 **** 0.06
14371 C 18.16103618492275 35.49439935699206 278.0169601770403 C 0.0 **** -0.24
14372 H 18.0322379451394 34.70223311542014 278.75455966821755 H 0.0 **** 0.06
14373 H 17.378447342757426 35.42013598255346 277.26228938622404 H 0.0 **** 0.06
14374 H 19.136407595934045 35.39180557913619 277.5410121981454 H 0.0 **** 0.06
14375 H 18.098600233736363 36.46394184835242 278.5115068999296 H 0.0 **** 0.06
14376 C 145.2577748795949 131.86832912934742 110.25811698026615 C 0.0 **** -0.24
14377 H 145.70019020261464 131.2014379056784 109.51783654054165 H 0.0 **** 0.06
14378 H 145.6996672754963 131.67024549539616 111.23474143994454 H 0.0 **** 0.06
14379 H 144.1818665273286 131.69783459297457 110.30399925852683 H 0.0 **** 0.06
14380 H 145.44963400895602 132.90301732488695 109.97532242745305 H 0.0 **** 0.06
14381 C 211.61857807155243 253.29086250105513 116.0534791693216 C 0.0 **** -0.24
14382 H 212.12520214192443 253.96046339094133 115.35782332521987 H 0.0 **** 0.06
14383 H 211.0858632840747 252.5212347193595 115.49385216125881 H 0.0 **** 0.06
14384 H 210.9094192061769 253.859214585963 116.65422866408082 H 0.0 **** 0.06
14385 H 212.35426727793595 252.82151075553185 116.70607527520522 H 0.0 **** 0.06
14386 C 6.8407540213585065 161.80194251039927 200.6999936181918 C 0.0 **** -0.24
14387 H 7.685309320639021 161.67465310930857 200.02238376942177 H 0.0 **** 0.06
14388 H 7.1309036095564835 161.48782930795699 201.70340204429522 H 0.0 **** 0.06
14389 H 6.00350856660198 161.19498188467804 200.3566800685095 H 0.0 **** 0.06
14390 H 6.54489944717794 162.8509337912767 200.71893337218535 H 0.0 **** 0.06
14391 C 146.43590209145353 113.77595736959469 249.01091426924768 C 0.0 **** -0.24
14392 H 147.07535655219476 114.33821444698037 249.69170155124394 H 0.0 **** 0.06
14393 H 146.4835074532349 114.22133961263862 248.01685403961557 H 0.0 **** 0.06
14394 H 145.408210463701 113.80179758816479 249.3724506418285 H 0.0 **** 0.06
14395 H 146.77790492606823 112.74213209354605 248.96267829106 H 0.0 **** 0.06
14396 C 261.3351307902558 19.46834220066873 268.9303533246744 C 0.0 **** -0.24
14397 H 261.393932711604 18.455284890747805 269.32799080995954 H 0.0 **** 0.06
14398 H 260.33923191280627 19.87324458473833 269.11494434019187 H 0.0 **** 0.06
14399 H 261.52694160320607 19.448312926544318 267.85772953768884 H 0.0 **** 0.06
14400 H 262.07868991152725 20.094801290603783 269.4209521244778 H 0.0 **** 0.06
14401 C 309.91738085734363 209.5397538510108 12.881497101164996 C 0.0 **** -0.24
14402 H 309.42606541989136 210.47036436444364 12.596798023448855 H 0.0 **** 0.06
14403 H 309.1945977687251 208.8794570218824 13.361397150064022 H 0.0 **** 0.06
14404 H 310.7296148513466 209.75578689874533 13.576533803342272 H 0.0 **** 0.06
14405 H 310.31965618618165 209.05395013799287 11.991991808074545 H 0.0 **** 0.06
14406 C 205.11171249094838 250.41132545055348 240.08025204145085 C 0.0 **** -0.24
14407 H 205.25473549516738 250.4767711109336 241.1588736785494 H 0.0 **** 0.06
14408 H 204.982833960403 249.36647120993598 239.79424627350824 H 0.0 **** 0.06
14409 H 205.9832634875208 250.82291835915413 239.57160138898718 H 0.0 **** 0.06
14410 H 204.22446488862272 250.97753154707692 239.79630010920351 H 0.0 **** 0.06
14411 C 170.20563075324088 43.55114295519647 135.39877193765903 C 0.0 **** -0.24
14412 H 169.42792119639438 43.82053512559415 134.68281798510438 H 0.0 **** 0.06
14413 H 169.7808793769267 42.91455861199995 136.174615343208 H 0.0 **** 0.06
14414 H 170.6098188866751 44.45704169130261 135.8517198237524 H 0.0 **** 0.06
14415 H 171.0027241411259 43.01549168265507 134.88442653869788 H 0.0 **** 0.06
14416 C 9.004411807974876 36.67210737366318 81.37876874647364 C 0.0 **** -0.24
14417 H 10.0557521521565 36.44691166943957 81.19819818454175 H 0.0 **** 0.06
14418 H 8.407682421003372 36.31327015856792 80.54011432293015 H 0.0 **** 0.06
14419 H 8.875784464737038 37.74987417811556 81.4813946410458 H 0.0 **** 0.06
14420 H 8.678929977528938 36.17831606068668 82.29404688153303 H 0.0 **** 0.06
14421 C 163.0322328772191 80.35014562304093 295.99341221950476 C 0.0 **** -0.24
14422 H 162.48364996552783 79.48199821010934 295.62514571545853 H 0.0 **** 0.06
14423 H 162.48586595086425 81.25862177569931 295.73935196467676 H 0.0 **** 0.06
14424 H 164.01863217657052 80.37786455710247 295.5316076851184 H 0.0 **** 0.06
14425 H 163.13880304842672 80.2793385801996 297.07597377072034 H 0.0 **** 0.06
14426 C 290.6779866141028 126.40816544314842 112.76807211604029 C 0.0 **** -0.24
14427 H 290.2069469599554 127.31203162886015 112.3836219814736 H 0.0 **** 0.06
14428 H 291.7227567867036 126.61504383737238 113.0023859473421 H 0.0 **** 0.06
14429 H 290.6234714458816 125.62110497878453 112.01634459277511 H 0.0 **** 0.06
14430 H 290.1601759476411 126.08509354068644 113.67184698564424 H 0.0 **** 0.06
14431 C 295.4291598806938 167.66067536910663 105.7341051805563 C 0.0 **** -0.24
14432 H 295.4308569526992 168.05405596765365 106.75028585902646 H 0.0 **** 0.06
14433 H 296.0937080375538 166.7979355267069 105.67729790721441 H 0.0 **** 0.06
14434 H 295.77417822710254 168.43188624786484 105.04610774832753 H 0.0 **** 0.06
14435 H 294.4169581706535 167.35840343772742 105.46370042495502 H 0.0 **** 0.06
14436 C 229.31406954254103 7.421833376197782 277.4272248135203 C 0.0 **** -0.24
14437 H 230.28595976587945 6.949969561601961 277.57270775237106 H 0.0 **** 0.06
14438 H 228.5255849508929 6.681697546443544 277.56663197250225 H 0.0 **** 0.06
14439 H 229.25594069912495 7.829887931452333 276.41845533304286 H 0.0 **** 0.06
14440 H 229.19019327427102 8.22751394533961 278.1512675217348 H 0.0 **** 0.06
14441 C 208.17771291196163 167.81350135036826 181.48382643085046 C 0.0 **** -0.24
14442 H 207.47858462809285 168.6208489437202 181.26759310144786 H 0.0 **** 0.06
14443 H 208.27193330175965 167.69448496498984 182.56365094086397 H 0.0 **** 0.06
14444 H 209.1518208855277 168.0534220340631 181.0574755520475 H 0.0 **** 0.06
14445 H 207.80786342478171 166.8858718933455 181.04614926605046 H 0.0 **** 0.06
14446 C 6.11666218142777 75.26606294620277 118.99044514579813 C 0.0 **** -0.24
14447 H 6.182720616333214 76.05090614531994 119.7446120971141 H 0.0 **** 0.06
14448 H 5.421978962062468 75.57252008895787 118.2084287814595 H 0.0 **** 0.06
14449 H 5.759453760784368 74.34606205757458 119.4539145215312 H 0.0 **** 0.06
14450 H 7.101432489359368 75.0958493515663 118.5556565519559 H 0.0 **** 0.06
14451 C 88.0497733963295 274.3759640853948 212.59788723860936 C 0.0 **** -0.24
14452 H 87.055578604159 273.9736797301778 212.40696747424857 H 0.0 **** 0.06
14453 H 88.73673874600192 273.5580140106817 212.81614084293437 H 0.0 **** 0.06
14454 H 88.00917801765502 275.05383219653055 213.4506159117309 H 0.0 **** 0.06
14455 H 88.39744712944275 274.9178844789567 211.7191582667083 H 0.0 **** 0.06
14456 C 183.80390397749062 232.52877743131668 160.84601095549618 C 0.0 **** -0.24
14457 H 184.48155692053092 232.79500276243255 161.65730492973415 H 0.0 **** 0.06
14458 H 184.07569987859205 233.08593097156623 159.94977423000984 H 0.0 **** 0.06
14459 H 182.78166161448445 232.77420413646925 161.1313784853014 H 0.0 **** 0.06
14460 H 183.87872151577648 231.4595791377235 160.64690872965957 H 0.0 **** 0.06
14461 C 52.78100415246959 236.86356410612132 234.6581886444019 C 0.0 **** -0.24
14462 H 53.77740473869463 236.95379093052884 235.0902214436656 H 0.0 **** 0.06
14463 H 52.848956764198704 236.92475524202422 233.57289862376481 H 0.0 **** 0.06
14464 H 52.150037180196506 237.6709200859821 235.02995651802559 H 0.0 **** 0.06
14465 H 52.347382100248865 235.90426113468453 234.9426215533094 H 0.0 **** 0.06
14466 C 84.66477915147928 21.854473133749195 292.08479132708806 C 0.0 **** -0.24
14467 H 84.2624275126411 20.85558534110453 291.91730794097697 H 0.0 **** 0.06
14468 H 84.29149813940441 22.242569006322952 293.0323287818751 H 0.0 **** 0.06
14469 H 84.3526921676856 22.513447537928727 291.27411395447905 H 0.0 **** 0.06
14470 H 85.75350286761281 21.806928470964777 292.1146497692997 H 0.0 **** 0.06
14471 C 294.3431956108034 197.81126892758618 258.6740900800589 C 0.0 **** -0.24
14472 H 295.1191944732625 198.45341957882425 259.0915139168771 H 0.0 **** 0.06
14473 H 293.69285208284936 197.46095967741923 259.4761318985344 H 0.0 **** 0.06
14474 H 294.80559306257726 196.9565138252476 258.1801217986872 H 0.0 **** 0.06
14475 H 293.75538385667875 198.3754578191755 257.95041364426294 H 0.0 **** 0.06
14476 C 161.82521965386013 167.47003661453067 58.47141247225608 C 0.0 **** -0.24
14477 H 162.19967121790694 167.28987395566259 57.46414300051583 H 0.0 **** 0.06
14478 H 162.06706770770217 166.6169238994936 59.106653821654334 H 0.0 **** 0.06
14479 H 160.74428774869835 167.6039463443828 58.43946333641742 H 0.0 **** 0.06
14480 H 162.29068886417434 168.36828130132568 58.87740046206136 H 0.0 **** 0.06
14481 C 63.6737843081348 300.1238214059423 34.937021950562496 C 0.0 **** -0.24
14482 H 64.34553052637412 300.93353139784404 35.22564992320051 H 0.0 **** 0.06
14483 H 62.66094960635459 300.5123486775358 34.83414448584307 H 0.0 **** 0.06
14484 H 63.69091387680922 299.34824777036124 35.7026207116119 H 0.0 **** 0.06
14485 H 64.00105232950511 299.70279647831376 33.9862764518829 H 0.0 **** 0.06
14486 C 237.09852576657693 92.32438804013921 112.20009871148696 C 0.0 **** -0.24
14487 H 237.0290888078858 91.802086184802 111.24593801728801 H 0.0 **** 0.06
14488 H 236.1738371743263 92.87293175154173 112.38233525761001 H 0.0 **** 0.06
14489 H 237.93485300524355 93.02357564595943 112.17062335730475 H 0.0 **** 0.06
14490 H 237.2557944650792 91.60126645680478 112.99965613709867 H 0.0 **** 0.06
14491 C 302.7402789347069 281.6573106273326 29.230815984819543 C 0.0 **** -0.24
14492 H 303.2848805998502 282.50495986566597 28.815068291723975 H 0.0 **** 0.06
14493 H 303.3050967291754 280.7415543285748 29.056934964573514 H 0.0 **** 0.06
14494 H 301.76529058536704 281.5811573077154 28.748778907956023 H 0.0 **** 0.06
14495 H 302.6042582012725 281.80341425315595 30.3022068746655 H 0.0 **** 0.06
14496 C 38.158026249281505 48.213340720015765 310.6343939760062 C 0.0 **** -0.24
14497 H 37.58463338482824 47.28934752454296 310.5542968380471 H 0.0 **** 0.06
14498 H 38.477393453797845 48.35350752094524 311.66769848688483 H 0.0 **** 0.06
14499 H 37.53578848530671 49.054176598888944 310.32863829268496 H 0.0 **** 0.06
14500 H 39.03432676653162 48.15492127225184 309.9879475926834 H 0.0 **** 0.06
14501 C 307.74005483381904 32.40887563234514 76.88643934791244 C 0.0 **** -0.24
14502 H 308.4399904487401 33.24299311754487 76.92685595534437 H 0.0 **** 0.06
14503 H 307.59167317766696 32.010046776442664 77.89057966853926 H 0.0 **** 0.06
14504 H 308.14332611794276 31.62792158675032 76.24060855984192 H 0.0 **** 0.06
14505 H 306.78616756059466 32.753824061373166 76.48693465082138 H 0.0 **** 0.06
14506 C 142.5622633049005 84.70285384655534 131.2601223616387 C 0.0 **** -0.24
14507 H 142.99734250812855 83.77726202703016 131.6393692842666 H 0.0 **** 0.06
14508 H 141.4870600925455 84.57430580998559 131.13465202490954 H 0.0 **** 0.06
14509 H 143.0144839988485 84.94788999552321 130.29841082193064 H 0.0 **** 0.06
14510 H 142.75236670932816 85.50915487709648 131.96750534643593 H 0.0 **** 0.06
14511 C 196.48915279924637 184.6982993323761 102.12274455739134 C 0.0 **** -0.24
14512 H 196.78890969596944 183.65603926832642 102.00627087363415 H 0.0 **** 0.06
14513 H 196.31471925385227 185.13735123681334 101.14061589377474 H 0.0 **** 0.06
14514 H 197.27981894483872 185.24872763633215 102.63176918786883 H 0.0 **** 0.06
14515 H 195.57421205524247 184.74826898899613 102.71237648886552 H 0.0 **** 0.06
14516 C 103.89544172766972 28.97158787005361 145.39205997981608 C 0.0 **** -0.24
14517 H 103.76195796071974 29.43302256820664 146.3710627674135 H 0.0 **** 0.06
14518 H 104.6979467928231 29.481198561737386 144.8574022202137 H 0.0 **** 0.06
14519 H 102.969107127601 29.0549118696469 144.82285731474235 H 0.0 **** 0.06
14520 H 104.15185191830207 27.920579821987502 145.51829087483742 H 0.0 **** 0.06
14521 C 248.17371846591868 231.26757336681976 198.5696959032195 C 0.0 **** -0.24
14522 H 247.4853287905897 231.6739646511934 197.8287120108326 H 0.0 **** 0.06
14523 H 247.65183992299518 230.53761954994013 199.18849034531848 H 0.0 **** 0.06
14524 H 248.5489682589187 232.07496402315002 199.1978704547821 H 0.0 **** 0.06
14525 H 249.00851977723474 230.78376533293692 198.06231349491367 H 0.0 **** 0.06
14526 C 112.31522149971957 111.17822217077477 107.43460417485898 C 0.0 **** -0.24
14527 H 112.72205065570904 110.60075017216278 106.60410042328425 H 0.0 **** 0.06
14528 H 111.22836015074301 111.09601050676895 107.43460516933328 H 0.0 **** 0.06
14529 H 112.60090398690747 112.22425893883192 107.32533412073141 H 0.0 **** 0.06
14530 H 112.70954323598787 110.78987905491385 108.37417926345447 H 0.0 **** 0.06
14531 C 2.7144598512794005 52.00406773299642 247.6367849420347 C 0.0 **** -0.24
14532 H 1.7353780469732953 52.145974338879114 247.18030418540718 H 0.0 **** 0.06
14533 H 2.7771890770034418 52.593381718262776 248.55219765000956 H 0.0 **** 0.06
14534 H 3.489272110180238 52.32941740369279 246.94235142712796 H 0.0 **** 0.06
14535 H 2.856689730625007 50.949540201489185 247.87287961835642 H 0.0 **** 0.06
14536 C 68.6468195147418 309.92624339658414 241.16302404713934 C 0.0 **** -0.24
14537 H 69.35350557904397 309.09614304105844 241.18499129672526 H 0.0 **** 0.06
14538 H 67.67435336948438 309.5838051695781 241.5161132778028 H 0.0 **** 0.06
14539 H 68.55421750101647 310.29701298253593 240.14258388343046 H 0.0 **** 0.06
14540 H 69.00761728344006 310.72669368353496 241.80960170064898 H 0.0 **** 0.06
14541 C 210.22402396672808 232.1117445197434 96.34695757468293 C 0.0 **** -0.24
14542 H 209.70602175553856 233.06980829900246 96.40428872072371 H 0.0 **** 0.06
14543 H 209.6712343769331 231.36655006937127 96.91798756108875 H 0.0 **** 0.06
14544 H 211.22706179987202 232.21624188233162 96.7602912840461 H 0.0 **** 0.06
14545 H 210.2907022352033 231.797325945147 95.30565199213689 H 0.0 **** 0.06
14546 C 158.6248605561965 302.9578790058008 240.8180571204295 C 0.0 **** -0.24
14547 H 159.03896356038564 302.21568405379077 241.50115572892446 H 0.0 **** 0.06
14548 H 158.2900501417846 303.82545596042155 241.38546927930363 H 0.0 **** 0.06
14549 H 157.77996790726303 302.5255269896156 240.28127271356442 H 0.0 **** 0.06
14550 H 159.3909371832625 303.26272141023367 240.10544708845504 H 0.0 **** 0.06
14551 C 203.48030135367037 129.50806511942073 199.99818140856058 C 0.0 **** -0.24
14552 H 204.34720376441823 128.99215235499705 199.58479347717537 H 0.0 **** 0.06
14553 H 202.61827030858456 129.34317526832828 199.35198394404 H 0.0 **** 0.06
14554 H 203.68835636829124 130.57520060493218 200.06216818567088 H 0.0 **** 0.06
14555 H 203.26750683871296 129.11842326957918 200.99396254706875 H 0.0 **** 0.06
14556 C 152.1507229582059 234.87007512162782 170.5581451013868 C 0.0 **** -0.24
14557 H 151.59978077525147 235.20651759819242 171.43603548058195 H 0.0 **** 0.06
14558 H 152.63975531898268 235.72292763594248 170.0869643603035 H 0.0 **** 0.06
14559 H 151.46046314023926 234.40921582101038 169.85127280701602 H 0.0 **** 0.06
14560 H 152.90307802751744 234.14064861074252 170.85971626892552 H 0.0 **** 0.06
14561 C 270.0971566478073 94.94455705890394 196.18062121768372 C 0.0 **** -0.24
14562 H 269.1357550264474 95.16817564818405 195.71723584559317 H 0.0 **** 0.06
14563 H 270.81199386653856 95.72830410893272 195.92928943764758 H 0.0 **** 0.06
14564 H 270.4637217065418 93.98601762300481 195.81135902915616 H 0.0 **** 0.06
14565 H 269.97596006323323 94.89500314866558 197.2628569355619 H 0.0 **** 0.06
14566 C 147.19847897635256 101.88820741691049 50.76058113631447 C 0.0 **** -0.24
14567 H 146.85435564131117 100.9913779933629 50.24506346737246 H 0.0 **** 0.06
14568 H 148.24854390369038 101.7714317046775 51.027943119001065 H 0.0 **** 0.06
14569 H 146.60683418383545 102.03577263423341 51.664485611072195 H 0.0 **** 0.06
14570 H 147.08274989774245 102.75080291086456 50.105123174616125 H 0.0 **** 0.06
14571 C 227.00813188785423 0.5501127231706846 88.74030606317271 C 0.0 **** -0.24
14572 H 226.10284739073217 0.02632463569000265 88.43547600751984 H 0.0 **** 0.06
14573 H 226.80724659525316 1.6202263038798037 88.79559055986644 H 0.0 **** 0.06
14574 H 227.797624372541 0.36577052949991185 88.01081999190299 H 0.0 **** 0.06
14575 H 227.32500854599255 0.18836180771694444 89.7183857162633 H 0.0 **** 0.06
14576 C 180.44736277239434 298.2541015014491 243.35593706613489 C 0.0 **** -0.24
14577 H 181.52641754638995 298.12982780804293 243.44710281540202 H 0.0 **** 0.06
14578 H 179.94674935676204 297.35849633258164 243.7240945599447 H 0.0 **** 0.06
14579 H 180.187638196114 298.41152758304986 242.30899985492448 H 0.0 **** 0.06
14580 H 180.1295729493317 299.11630180880945 243.94251324180016 H 0.0 **** 0.06
14581 C 116.3069258816652 258.42701136475205 229.69358635983377 C 0.0 **** -0.24
14582 H 117.22419080599471 258.5021143660537 230.2765914561781 H 0.0 **** 0.06
14583 H 116.19806970879674 257.40974858057217 229.31588923644995 H 0.0 **** 0.06
14584 H 116.35173787457208 259.12333931431976 228.85534914503273 H 0.0 **** 0.06
14585 H 115.45372760092334 258.67420887063975 230.32474516209288 H 0.0 **** 0.06
14586 C 297.23475565273804 79.96625084312035 238.55351388934594 C 0.0 **** -0.24
14587 H 298.1883489358354 80.07246990416564 238.03640296207666 H 0.0 **** 0.06
14588 H 297.0035741472157 80.89098465563887 239.0823095378537 H 0.0 **** 0.06
14589 H 297.2994406179772 79.14479066346644 239.26777881442473 H 0.0 **** 0.06
14590 H 296.4498816154288 79.75651405583739 237.82755964098442 H 0.0 **** 0.06
14591 C 148.6017494670019 290.31711709582953 22.13388197657261 C 0.0 **** -0.24
14592 H 148.9200581680655 289.38365362874566 22.59840525691709 H 0.0 **** 0.06
14593 H 149.46944862833016 290.8317904632695 21.720752648325032 H 0.0 **** 0.06
14594 H 148.12556137268788 290.95039873697846 22.882848340757675 H 0.0 **** 0.06
14595 H 147.89145345048186 290.1012957851027 21.33597215764047 H 0.0 **** 0.06
14596 C 95.26297505910233 108.22403668137383 75.75508670567334 C 0.0 **** -0.24
14597 H 94.90148364827755 107.80102942851579 76.69166033754763 H 0.0 **** 0.06
14598 H 94.53417456830124 108.03431365423194 74.96573166699574 H 0.0 **** 0.06
14599 H 96.2138127273883 107.76137975524455 75.48982900262027 H 0.0 **** 0.06
14600 H 95.40164461307234 109.29861622821795 75.87119398031919 H 0.0 **** 0.06
14601 C 12.99622415950266 312.72393003079634 193.13484597600723 C 0.0 **** -0.24
14602 H 12.783682614675342 313.28130320102105 192.223292584938 H 0.0 **** 0.06
14603 H 13.538099390286035 313.36201663204935 193.83306304422615 H 0.0 **** 0.06
14604 H 13.60379006644078 311.85143718682104 192.89311211596737 H 0.0 **** 0.06
14605 H 12.059885470907943 312.40004927107236 193.5889940384913 H 0.0 **** 0.06
14606 C 154.33992271681393 232.4670171562447 261.6523903415454 C 0.0 **** -0.24
14607 H 154.21078913516777 231.57069207510608 261.04533415044284 H 0.0 **** 0.06
14608 H 154.60828240040655 233.30549785376706 261.00856073931027 H 0.0 **** 0.06
14609 H 155.1315094545692 232.30117028505558 262.38259962548136 H 0.0 **** 0.06
14610 H 153.40816711426254 232.69096096030106 262.1716359663975 H 0.0 **** 0.06
14611 C 135.0670721317993 80.6465032457221 89.22238716954547 C 0.0 **** -0.24
14612 H 135.6316611658724 80.79003641950007 88.30097803039038 H 0.0 **** 0.06
14613 H 135.37468033701433 81.39208746769847 89.95568363796428 H 0.0 **** 0.06
14614 H 135.26189402198986 79.648295194582 89.615489536994 H 0.0 **** 0.06
14615 H 134.00216848831545 80.75511627660754 89.01794209780263 H 0.0 **** 0.06
14616 C 184.74018776742122 86.8253394767872 192.94249625317138 C 0.0 **** -0.24
14617 H 185.70633481811456 86.93327690184714 193.43455593923164 H 0.0 **** 0.06
14618 H 183.94705979063855 87.12720194489717 193.62788914851706 H 0.0 **** 0.06
14619 H 184.59393890158555 85.78465058480458 192.65283912779455 H 0.0 **** 0.06
14620 H 184.7120139378914 87.45793947565426 192.05502071610192 H 0.0 **** 0.06
14621 C 92.65656982342875 124.43951198205104 251.34405297193294 C 0.0 **** -0.24
14622 H 91.94405417798541 124.04659773248423 252.06940957242475 H 0.0 **** 0.06
14623 H 93.66505019821 124.37450955281594 251.75374233269656 H 0.0 **** 0.06
14624 H 92.41864951519631 125.48108993721542 251.12856598998263 H 0.0 **** 0.06
14625 H 92.59921421773453 123.85565749683857 250.42571391585295 H 0.0 **** 0.06
14626 C 232.11873828408625 7.405005168332721 192.35926683847862 C 0.0 **** -0.24
14627 H 232.3791537581833 8.274764458083595 191.75504675073404 H 0.0 **** 0.06
14628 H 231.66758460551063 7.735452309416544 193.29521363078612 H 0.0 **** 0.06
14629 H 233.01925998813272 6.829168184218119 192.57357451402373 H 0.0 **** 0.06
14630 H 231.41022742775425 6.782474266602051 191.81324486927332 H 0.0 **** 0.06
14631 C 277.37935129598316 78.52124234120026 151.6404518989204 C 0.0 **** -0.24
14632 H 277.4028673061639 77.71028546911873 152.36828931081266 H 0.0 **** 0.06
14633 H 278.253145243444 78.45318962700756 150.99166586348832 H 0.0 **** 0.06
14634 H 277.38812708186794 79.47809235625738 152.16206419026264 H 0.0 **** 0.06
14635 H 276.47326555245667 78.44340191241744 151.03978823111788 H 0.0 **** 0.06
14636 C 13.331273219539469 249.9223116437836 134.9645905729253 C 0.0 **** -0.24
14637 H 14.315374072968893 249.96128597682167 134.4978006196039 H 0.0 **** 0.06
14638 H 12.569488391555751 250.17584838915673 134.22620087076382 H 0.0 **** 0.06
14639 H 13.29208222695081 250.6355164709241 135.7869659637058 H 0.0 **** 0.06
14640 H 13.149797454354598 248.91749130224542 135.34484966056644 H 0.0 **** 0.06
14641 C 149.4625262763584 261.80237431578604 110.35060196353547 C 0.0 **** -0.24
14642 H 149.18406909212803 262.4003956998019 111.21849214788926 H 0.0 **** 0.06
14643 H 148.64110542344585 261.7989944652772 109.63433266534904 H 0.0 **** 0.06
14644 H 149.6736943593191 260.78112605982824 110.66673387837085 H 0.0 **** 0.06
14645 H 150.34955662304367 262.229986644652 109.88512242338899 H 0.0 **** 0.06
14646 C 143.18618280069018 167.45500327566077 54.682219442016475 C 0.0 **** -0.24
14647 H 143.43962333913296 168.3410314410978 55.2635595572317 H 0.0 **** 0.06
14648 H 143.03936940775756 167.73491397070694 53.63830029406475 H 0.0 **** 0.06
14649 H 142.26850714477877 167.0154870682694 55.073119997077015 H 0.0 **** 0.06
14650 H 143.99636507833668 166.72960094628718 54.75435463550238 H 0.0 **** 0.06
14651 C 152.06188729314323 310.1201455719314 39.94464377022666 C 0.0 **** -0.24
14652 H 151.03618681211884 309.87511578585645 39.67268556035373 H 0.0 **** 0.06
14653 H 152.59319762503196 309.20798642265714 40.21607399533161 H 0.0 **** 0.06
14654 H 152.05943664820433 310.8057306535419 40.79253376543352 H 0.0 **** 0.06
14655 H 152.55952672667496 310.59232934860177 39.09744259794809 H 0.0 **** 0.06
14656 C 171.42129966780112 111.44014035392308 222.59301990151005 C 0.0 **** -0.24
14657 H 171.48812135869252 112.01103858203348 223.51930788375154 H 0.0 **** 0.06
14658 H 170.99947283531026 110.45703155972842 222.80291409838748 H 0.0 **** 0.06
14659 H 172.41851256978612 111.32383285161987 222.16641662996906 H 0.0 **** 0.06
14660 H 170.78231130286184 111.96735634929848 221.88607541690268 H 0.0 **** 0.06
14661 C 172.0968892935183 179.8111460951652 25.100471077771488 C 0.0 **** -0.24
14662 H 173.05790175648883 179.81046469396705 25.614192722960013 H 0.0 **** 0.06
14663 H 171.39826071426694 179.16746304214968 25.636073160249538 H 0.0 **** 0.06
14664 H 172.22801485969404 179.4385718508462 24.08383305228628 H 0.0 **** 0.06
14665 H 171.703142709227 180.82677684910323 25.067302615586073 H 0.0 **** 0.06
14666 C 211.96581444501842 272.25368989345776 261.21529248153513 C 0.0 **** -0.24
14667 H 212.05621090739476 271.1678840534224 261.25735803676747 H 0.0 **** 0.06
14668 H 211.14512343558675 272.5740095578592 261.85821155559927 H 0.0 **** 0.06
14669 H 211.76655198787054 272.5618722814344 260.189490632409 H 0.0 **** 0.06
14670 H 212.8952078748302 272.7079132757457 261.55822734373794 H 0.0 **** 0.06
14671 C 176.54387240982805 231.6205558833135 137.24574901261911 C 0.0 **** -0.24
14672 H 176.40477408746585 232.70130004578806 137.2147802720362 H 0.0 **** 0.06
14673 H 176.22866007970163 231.24229061129608 138.21712531018107 H 0.0 **** 0.06
14674 H 177.59696698858647 231.38613123440837 137.08729950498073 H 0.0 **** 0.06
14675 H 175.94678627663484 231.15484608865594 136.4614200709421 H 0.0 **** 0.06
14676 C 142.30408601295431 191.4051402920025 106.43756400180126 C 0.0 **** -0.24
14677 H 142.89107130572037 190.65196090577336 105.91329839946198 H 0.0 **** 0.06
14678 H 141.312295525871 191.4703320822153 105.98825785039705 H 0.0 **** 0.06
14679 H 142.801937322864 192.37209156182922 106.36068963737779 H 0.0 **** 0.06
14680 H 142.2101077535291 191.12731965977468 107.48710205756731 H 0.0 **** 0.06
14681 C 111.61899612583991 14.931052135976543 116.2366824866152 C 0.0 **** -0.24
14682 H 112.37602996193598 14.151610847519265 116.32962550163194 H 0.0 **** 0.06
14683 H 111.30220790494076 15.007352099332522 115.19699124193079 H 0.0 **** 0.06
14684 H 112.03685731575686 15.883764157256934 116.56059324019563 H 0.0 **** 0.06
14685 H 110.76211248984441 14.679692720019474 116.86159466253366 H 0.0 **** 0.06
14686 C 22.96101234068908 195.80502388923276 299.1544427503657 C 0.0 **** -0.24
14687 H 22.55570955633044 196.57284132561722 298.49484030126484 H 0.0 **** 0.06
14688 H 24.020424715904028 195.99576950062897 299.32660221758636 H 0.0 **** 0.06
14689 H 22.83842136235205 194.8260034989654 298.69102622267013 H 0.0 **** 0.06
14690 H 22.428512036167263 195.82560301182093 300.1051557849541 H 0.0 **** 0.06
14691 C 253.87954126857068 309.05382640150754 140.72240868873487 C 0.0 **** -0.24
14692 H 253.10356727240696 309.03189440543105 139.95721218132846 H 0.0 **** 0.06
14693 H 253.5739660030178 308.43488854539703 141.56665690004976 H 0.0 **** 0.06
14694 H 254.02941628078972 310.07946288554507 141.05869670587583 H 0.0 **** 0.06
14695 H 254.81004386759884 308.66766987117717 140.30576687709396 H 0.0 **** 0.06
14696 C 8.581590947259755 58.56464095974653 32.064080960908285 C 0.0 **** -0.24
14697 H 8.587815284007135 58.00872863522298 33.00203890151539 H 0.0 **** 0.06
14698 H 7.553066005596719 58.795830852419186 31.7866606505157 H 0.0 **** 0.06
14699 H 9.043103456637326 57.961099205472436 31.28158565036685 H 0.0 **** 0.06
14700 H 9.142439786866206 59.49038852234125 32.18767049805871 H 0.0 **** 0.06
14701 C 206.88906642954612 62.4239672074458 143.763279509479 C 0.0 **** -0.24
14702 H 205.97503328030348 61.915571632770934 143.45829477799873 H 0.0 **** 0.06
14703 H 207.3939557299048 62.822923750819655 142.88346656285935 H 0.0 **** 0.06
14704 H 207.54556924638763 61.7172418024042 144.27012623177532 H 0.0 **** 0.06
14705 H 206.6417074615884 63.2401316437884 144.44123046528247 H 0.0 **** 0.06
14706 C 105.29740588010773 171.02159997123732 191.66738930983394 C 0.0 **** -0.24
14707 H 105.64799022754087 171.75204299999115 192.39678560040596 H 0.0 **** 0.06
14708 H 106.15260370576115 170.5160180175937 191.2197712654612 H 0.0 **** 0.06
14709 H 104.72613565443521 171.5287892674972 190.88992953810674 H 0.0 **** 0.06
14710 H 104.66182422779195 170.28820329564593 192.16481531906328 H 0.0 **** 0.06
14711 C 63.482824030575216 80.6344723949968 84.96070807280458 C 0.0 **** -0.24
14712 H 63.56276198834405 80.15104166650192 83.98722206771757 H 0.0 **** 0.06
14713 H 62.46341791525634 80.99309410995392 85.1047705230776 H 0.0 **** 0.06
14714 H 64.1744458093709 81.47620159121547 85.00506603132712 H 0.0 **** 0.06
14715 H 63.730651996938946 79.91769088846823 85.74354197637007 H 0.0 **** 0.06
14716 C 210.18877001445142 34.776863035143094 35.77463664986158 C 0.0 **** -0.24
14717 H 209.37942394323676 34.519703299528345 36.45831724745881 H 0.0 **** 0.06
14718 H 210.17526190351742 34.09564671931096 34.92347613934032 H 0.0 **** 0.06
14719 H 211.1436528020944 34.69019490918666 36.29408140380451 H 0.0 **** 0.06
14720 H 210.05729101008853 35.800015562280294 35.424127701999964 H 0.0 **** 0.06
14721 C 296.1553418436932 90.96123416479395 218.8987850209486 C 0.0 **** -0.24
14722 H 295.1443457090956 90.80172656365875 218.5241245210859 H 0.0 **** 0.06
14723 H 296.19724133626005 91.90834034369038 219.43847074155235 H 0.0 **** 0.06
14724 H 296.8528922296281 90.98913777507303 218.0614301383392 H 0.0 **** 0.06
14725 H 296.42599613233614 90.146812659956 219.57092356273614 H 0.0 **** 0.06
14726 C 48.107998394389995 181.73604129869187 282.40745776503115 C 0.0 **** -0.24
14727 H 48.302458313878475 181.8147286771728 283.4771647281375 H 0.0 **** 0.06
14728 H 47.907446039073534 182.7272078796122 282.00088315830726 H 0.0 **** 0.06
14729 H 47.24331417011834 181.09334260327483 282.24185906509524 H 0.0 **** 0.06
14730 H 48.9797125841319 181.30876924418283 281.91137580126974 H 0.0 **** 0.06
14731 C 127.34164494751761 24.018819116507018 73.42970950167395 C 0.0 **** -0.24
14732 H 128.39339684294063 23.82635412421621 73.64178856147885 H 0.0 **** 0.06
14733 H 126.72245413940874 23.39343926604596 74.07153901817875 H 0.0 **** 0.06
14734 H 127.13337549858409 23.78685717058832 72.38453064191486 H 0.0 **** 0.06
14735 H 127.1190357451218 25.06870547218145 73.61920127302989 H 0.0 **** 0.06
14736 C 96.15612174695059 259.1410164881939 156.7221616987244 C 0.0 **** -0.24
14737 H 95.71966570023648 258.1422824132037 156.7138721652164 H 0.0 **** 0.06
14738 H 95.45998312899965 259.8376887872436 157.1880898879743 H 0.0 **** 0.06
14739 H 96.35757834087923 259.4570088772535 155.69948218260708 H 0.0 **** 0.06
14740 H 97.08808323742775 259.12438215126616 157.28731161652343 H 0.0 **** 0.06
14741 C 72.98958915051097 57.89880652176362 126.95418848288756 C 0.0 **** -0.24
14742 H 72.02080698920676 57.40291288178685 126.89202762172414 H 0.0 **** 0.06
14743 H 73.44348849101144 57.68806052383377 127.92312288121352 H 0.0 **** 0.06
14744 H 72.85337941940523 58.975143348750976 126.84203991691857 H 0.0 **** 0.06
14745 H 73.63799931020333 57.529999641131326 126.15945324436541 H 0.0 **** 0.06
14746 C 301.5650736365634 65.16124916343145 304.6107646321503 C 0.0 **** -0.24
14747 H 301.54603652504574 65.31764467077767 305.6890430660087 H 0.0 **** 0.06
14748 H 300.7673984651783 64.47368716478135 304.3296131271244 H 0.0 **** 0.06
14749 H 302.52744054260353 64.74017160643686 304.3217266171273 H 0.0 **** 0.06
14750 H 301.41931553261645 66.11485206004448 304.10305364953257 H 0.0 **** 0.06
14751 C 198.80360715611687 80.80659182184729 296.32609092016645 C 0.0 **** -0.24
14752 H 199.44987458329445 81.46209290993636 295.7409421412999 H 0.0 **** 0.06
14753 H 199.1346343932587 79.77442995863447 296.2098618020891 H 0.0 **** 0.06
14754 H 197.77609827532314 80.90042505152678 295.9742881687156 H 0.0 **** 0.06
14755 H 198.85640586265066 81.08927565485675 297.3774550326 H 0.0 **** 0.06
14756 C 274.1061330559538 145.06555404569258 37.58164527904907 C 0.0 **** -0.24
14757 H 273.7488211569771 145.07444050741742 38.6113202700262 H 0.0 **** 0.06
14758 H 275.1002374502725 145.51151065786692 37.53922468406759 H 0.0 **** 0.06
14759 H 273.42307396393056 145.6385670291684 36.95481934925547 H 0.0 **** 0.06
14760 H 274.1525154191181 144.03706175488776 37.22247451477912 H 0.0 **** 0.06
14761 C 193.52886446811374 264.29755996925167 145.44472296468484 C 0.0 **** -0.24
14762 H 193.19810617449366 265.3311765267599 145.54447822241286 H 0.0 **** 0.06
14763 H 194.2103382565394 264.05405420321625 146.26037838921044 H 0.0 **** 0.06
14764 H 194.04220925825064 264.17068105888984 144.49159431735345 H 0.0 **** 0.06
14765 H 192.6648041831712 263.6343280881407 145.48244092976265 H 0.0 **** 0.06
14766 C 149.53034050540032 28.3162960191882 112.29627261017163 C 0.0 **** -0.24
14767 H 149.3628759469887 28.128159963101893 111.23657699900482 H 0.0 **** 0.06
14768 H 149.94840402908613 29.314653986347707 112.42671651135166 H 0.0 **** 0.06
14769 H 150.22459141394773 27.575836122720716 112.69185466431134 H 0.0 **** 0.06
14770 H 148.5827283647091 28.24702395382735 112.8310052203947 H 0.0 **** 0.06
14771 C 47.63646541606846 222.0672765596435 164.6569722519684 C 0.0 **** -0.24
14772 H 46.817530673860034 221.35112561539052 164.72325243125795 H 0.0 **** 0.06
14773 H 47.2575571025898 223.07064053402277 164.85213007570093 H 0.0 **** 0.06
14774 H 48.070904522094935 222.03097733568148 163.6580276195043 H 0.0 **** 0.06
14775 H 48.39836110962415 221.8167317990487 165.3937114295236 H 0.0 **** 0.06
14776 C 250.4739534772386 4.86733815002907 2.2852463421193647 C 0.0 **** -0.24
14777 H 249.57858583071717 4.363085372554281 1.9213215350068253 H 0.0 **** 0.06
14778 H 250.21751053165744 5.4893955953587295 3.1428254350161637 H 0.0 **** 0.06
14779 H 250.8855821110767 5.491618467242816 1.4927879526652532 H 0.0 **** 0.06
14780 H 251.21262384907573 4.122786094066612 2.5832575345688156 H 0.0 **** 0.06
14781 C 168.24693028996984 30.737349826854626 306.75283824883445 C 0.0 **** -0.24
14782 H 168.3232943846691 30.721241683610174 307.83997228014016 H 0.0 **** 0.06
14783 H 168.30591250335226 31.76774314375129 306.4008253720203 H 0.0 **** 0.06
14784 H 167.294306893628 30.303055601222383 306.4502700115221 H 0.0 **** 0.06
14785 H 169.06293957516533 30.15812422227421 306.3222364728154 H 0.0 **** 0.06
14786 C 13.701157008012018 176.9619277852118 92.15667249817119 C 0.0 **** -0.24
14787 H 12.952260515186765 177.66936659888228 91.80223955296708 H 0.0 **** 0.06
14788 H 13.8975300617779 176.22193272889967 91.38047903471559 H 0.0 **** 0.06
14789 H 13.331515245291726 176.46012597519518 93.05200722300475 H 0.0 **** 0.06
14790 H 14.621453764510449 177.49561477772295 92.3933989703188 H 0.0 **** 0.06
14791 C 189.89297758169045 270.9047735279781 120.7421488114339 C 0.0 **** -0.24
14792 H 190.11208535252484 270.32826344381334 121.64072004189163 H 0.0 **** 0.06
14793 H 188.98477809610154 270.52098509317346 120.27750326778232 H 0.0 **** 0.06
14794 H 190.72491972143797 270.81825951165337 120.04315027672627 H 0.0 **** 0.06
14795 H 189.75044693479668 271.95241502195404 121.0092736320413 H 0.0 **** 0.06
14796 C 105.0022365316394 148.01931265718005 49.76201389051582 C 0.0 **** -0.24
14797 H 104.9943311670454 147.58906621416796 48.76060895099101 H 0.0 **** 0.06
14798 H 104.30054036739938 148.85302361453552 49.80484948259374 H 0.0 **** 0.06
14799 H 106.00552537656492 148.37526437973844 49.996451975023376 H 0.0 **** 0.06
14800 H 104.708048418875 147.25908914775178 50.485832874311825 H 0.0 **** 0.06
14801 C 238.1450350643542 137.21454095649463 176.58974480143178 C 0.0 **** -0.24
14802 H 237.5682611740345 137.85096405294757 177.26161672095554 H 0.0 **** 0.06
14803 H 238.53457757534005 136.3601688418729 177.1441708796873 H 0.0 **** 0.06
14804 H 238.97378666376193 137.78506572696864 176.17126825518375 H 0.0 **** 0.06
14805 H 237.5019687016877 136.8624322916097 175.7834697311406 H 0.0 **** 0.06
14806 C 62.94378060088496 122.11746811526942 184.95430070898573 C 0.0 **** -0.24
14807 H 62.788219775936966 121.36225951027032 185.72475326610436 H 0.0 **** 0.06
14808 H 64.01164902963396 122.30661099190834 184.8424600035242 H 0.0 **** 0.06
14809 H 62.43920644858392 123.03948083781498 185.2419877114218 H 0.0 **** 0.06
14810 H 62.536285423012 121.75983289124437 184.00830700927298 H 0.0 **** 0.06
14811 C 230.47342231767172 229.52856993022965 300.94656234786686 C 0.0 **** -0.24
14812 H 229.9258099572463 230.46013900393677 300.80598101665544 H 0.0 **** 0.06
14813 H 230.63325553968417 229.0521418623926 299.97901907244363 H 0.0 **** 0.06
14814 H 229.89612419018647 228.86307967291046 301.58881848196927 H 0.0 **** 0.06
14815 H 231.43570945524434 229.73908351507558 301.4128646573329 H 0.0 **** 0.06
14816 C 113.96491123970213 196.35503121062067 155.8752475466381 C 0.0 **** -0.24
14817 H 113.1111853227909 196.9873329964966 156.11797755698308 H 0.0 **** 0.06
14818 H 114.59451449814242 196.24015694143895 156.75817109593396 H 0.0 **** 0.06
14819 H 114.54245614774277 196.81658477664416 155.0739750978467 H 0.0 **** 0.06
14820 H 113.61042352182906 195.37629817708336 155.55176268235329 H 0.0 **** 0.06
14821 C 98.32916636629301 308.5143787808278 25.352630730110377 C 0.0 **** -0.24
14822 H 97.25148204982517 308.39454904511626 25.462652079680453 H 0.0 **** 0.06
14823 H 98.84045972842378 307.8769690263017 26.07403994324912 H 0.0 **** 0.06
14824 H 98.59843757960363 309.55547779172764 25.531561483513485 H 0.0 **** 0.06
14825 H 98.6245876005178 308.2304657574476 24.34193441308372 H 0.0 **** 0.06
14826 C 314.08076164411705 130.78004624446842 72.05562209310096 C 0.0 **** -0.24
14827 H 313.2326451905493 130.30142010720758 71.56672348528406 H 0.0 **** 0.06
14828 H 313.83646818978855 130.97334503188603 73.1006511077797 H 0.0 **** 0.06
14829 H 314.304420816077 131.72216724939548 71.55460618596749 H 0.0 **** 0.06
14830 H 314.94966380417304 130.12493369562142 72.00089613688996 H 0.0 **** 0.06
14831 C 121.92823338283546 86.66953172086065 251.16048522715167 C 0.0 **** -0.24
14832 H 122.52243952000268 85.8318593793629 251.5245394280908 H 0.0 **** 0.06
14833 H 121.01084307998741 86.29402990134807 250.7057635854084 H 0.0 **** 0.06
14834 H 122.5018413651469 87.22462126037448 250.41718929509452 H 0.0 **** 0.06
14835 H 121.6795974300934 87.32792121319596 251.99205890609653 H 0.0 **** 0.06
14836 C 229.00556127417644 212.89076692589376 289.3857365383022 C 0.0 **** -0.24
14837 H 228.51231292481324 213.04987403684544 288.4269798737726 H 0.0 **** 0.06
14838 H 229.83368096765864 212.1927209449757 289.25666315230455 H 0.0 **** 0.06
14839 H 228.2910680294451 212.47908582402192 290.09836366539014 H 0.0 **** 0.06
14840 H 229.38667963806293 213.84068427662203 289.7591319916137 H 0.0 **** 0.06
14841 C 236.31463917837036 213.30240710642934 113.3437293751513 C 0.0 **** -0.24
14842 H 236.9966748197603 212.48488196426183 113.10869878416997 H 0.0 **** 0.06
14843 H 235.30517942393777 212.9099500176867 113.46344480560902 H 0.0 **** 0.06
14844 H 236.32830757388325 214.03074190081657 112.53287368368493 H 0.0 **** 0.06
14845 H 236.63042016558055 213.78411401476103 114.26895430518886 H 0.0 **** 0.06
14846 C 41.343476060648186 50.40237909586989 147.92356689037376 C 0.0 **** -0.24
14847 H 40.95933500915203 49.588252490232776 147.3099360020394 H 0.0 **** 0.06
14848 H 40.739086049263506 50.49362039197925 148.82654756233973 H 0.0 **** 0.06
14849 H 41.29902805902981 51.334231508008514 147.36014714846596 H 0.0 **** 0.06
14850 H 42.377319117062655 50.193914062109826 148.1976749188786 H 0.0 **** 0.06
14851 C 145.48473336948507 12.114062105873288 55.36950249881633 C 0.0 **** -0.24
14852 H 146.53536572452887 11.832076354327242 55.30573701218759 H 0.0 **** 0.06
14853 H 145.25640507119147 12.435513064134867 56.38608836494612 H 0.0 **** 0.06
14854 H 144.86201178876632 11.257036772199285 55.110495228746316 H 0.0 **** 0.06
14855 H 145.285937942238 12.930462965504276 54.67549791489486 H 0.0 **** 0.06
14856 C 194.5243398270602 62.68228595937492 142.40713172839907 C 0.0 **** -0.24
14857 H 194.33545577056339 62.27788165427583 143.4017222585353 H 0.0 **** 0.06
14858 H 194.64662622588713 61.863187262393325 141.69936219994634 H 0.0 **** 0.06
14859 H 195.4323009670008 63.28458170269579 142.42803037837507 H 0.0 **** 0.06
14860 H 193.68259553807547 63.305165593992996 142.1027374651796 H 0.0 **** 0.06
14861 C 35.85515944100251 106.06710196524946 3.78917176344099 C 0.0 **** -0.24
14862 H 36.81004891597905 105.98008188394786 4.308124505656949 H 0.0 **** 0.06
14863 H 35.06071940961846 106.23659249681816 4.516570794301302 H 0.0 **** 0.06
14864 H 35.6548638896482 105.14724427853614 3.2399815621630097 H 0.0 **** 0.06
14865 H 35.89564990049266 106.9042944016467 3.092749697081601 H 0.0 **** 0.06
14866 C 199.59890138773045 26.51567876732946 232.6008035572442 C 0.0 **** -0.24
14867 H 199.52187150044767 25.43511939306748 232.7230499757194 H 0.0 **** 0.06
14868 H 200.41367965974194 26.89323526587168 233.22018132285984 H 0.0 **** 0.06
14869 H 198.6631489843333 26.98323471410987 232.90633624585027 H 0.0 **** 0.06
14870 H 199.79760934607032 26.7495864872499 231.55591281352844 H 0.0 **** 0.06
14871 C 174.59775800741352 295.34658203173524 45.439415752956904 C 0.0 **** -0.24
14872 H 174.16763582885358 296.0007043625893 44.68055394692317 H 0.0 **** 0.06
14873 H 173.91079348082224 294.5242366779574 45.64134448313456 H 0.0 **** 0.06
14874 H 174.7656170956745 295.91394427537944 46.35533374321517 H 0.0 **** 0.06
14875 H 175.54619286785635 294.94872492132765 45.0795777595022 H 0.0 **** 0.06
14876 C 256.72542674657956 214.07362219621115 134.32994987105624 C 0.0 **** -0.24
14877 H 257.341541578515 214.2119801498568 135.21814744950964 H 0.0 **** 0.06
14878 H 256.8462677798198 214.93035204640842 133.66634625272522 H 0.0 **** 0.06
14879 H 255.6791836510887 213.98587497941026 134.62369153187598 H 0.0 **** 0.06
14880 H 257.034123754618 213.16548502717444 133.81148348584946 H 0.0 **** 0.06
14881 C 63.73719092304887 199.3540899784884 152.22440168313653 C 0.0 **** -0.24
14882 H 64.3396217196476 200.11974574817265 151.73671559292302 H 0.0 **** 0.06
14883 H 63.32725532247258 198.68046256954267 151.4713583438733 H 0.0 **** 0.06
14884 H 62.921908906967815 199.8278997393241 152.7715158362962 H 0.0 **** 0.06
14885 H 64.35997774310749 198.7882518569142 152.91801695945367 H 0.0 **** 0.06
14886 C 200.7837845444783 293.7303168096409 280.8501919966495 C 0.0 **** -0.24
14887 H 201.41027925382434 294.3235956102875 281.5161409385209 H 0.0 **** 0.06
14888 H 199.73574307388554 293.9709899565631 281.0280004931693 H 0.0 **** 0.06
14889 H 200.95170339783755 292.6705094527481 281.04164688595125 H 0.0 **** 0.06
14890 H 201.03837622558103 293.95749730599977 279.8144181539985 H 0.0 **** 0.06
14891 C 140.31067051572884 132.4429433623703 231.51095903344964 C 0.0 **** -0.24
14892 H 140.5753056960311 132.09158077820973 230.51353289240558 H 0.0 **** 0.06
14893 H 139.34169792302387 132.94033830991387 231.47494891747976 H 0.0 **** 0.06
14894 H 141.06737957504345 133.14393998092194 231.86223881812168 H 0.0 **** 0.06
14895 H 140.2580523176297 131.59379692517453 232.1924405107961 H 0.0 **** 0.06
14896 C 292.1959376834815 28.9002994759814 128.41518880953075 C 0.0 **** -0.24
14897 H 292.4367101201023 27.844471871177603 128.5357709348686 H 0.0 **** 0.06
14898 H 291.1516492143178 29.067274943166893 128.68146712627671 H 0.0 **** 0.06
14899 H 292.35788945509205 29.192821758792036 127.37791898639924 H 0.0 **** 0.06
14900 H 292.8370107203811 29.496085388855903 129.06491787401526 H 0.0 **** 0.06
14901 C 260.19827637010934 189.9088521919162 92.54391110112994 C 0.0 **** -0.24
14902 H 261.27817411588387 190.0412038910361 92.47172910910609 H 0.0 **** 0.06
14903 H 259.81012460159405 189.56131528474663 91.5866704568179 H 0.0 **** 0.06
14904 H 259.73220427479686 190.85922547682276 92.8021624648303 H 0.0 **** 0.06
14905 H 259.9742754853496 189.17235751011424 93.31578514431453 H 0.0 **** 0.06
14906 C 109.92829745819566 164.983666593747 186.48213592081976 C 0.0 **** -0.24
14907 H 109.34539104168681 165.6088282788545 187.15910219069997 H 0.0 **** 0.06
14908 H 110.13519021977251 164.02661445310952 186.96147394051195 H 0.0 **** 0.06
14909 H 110.86747626749371 165.48300915821994 186.24538813419537 H 0.0 **** 0.06
14910 H 109.3631457902321 164.8167260711096 185.56498609363075 H 0.0 **** 0.06
14911 C 122.56029222840053 29.62868199543206 171.7061810086405 C 0.0 **** -0.24
14912 H 121.62393671994687 29.494614164652518 172.24789082842705 H 0.0 **** 0.06
14913 H 122.34642964300625 29.837614671336098 170.6572466501447 H 0.0 **** 0.06
14914 H 123.15641786063316 28.719220319947937 171.78145412194812 H 0.0 **** 0.06
14915 H 123.11311017747238 30.463389729186645 172.13752966773677 H 0.0 **** 0.06
14916 C 262.55560747735007 253.15920489960715 76.46264710440292 C 0.0 **** -0.24
14917 H 261.81110300769325 253.40102861312653 77.22209212715043 H 0.0 **** 0.06
14918 H 263.2782460583776 253.97188503330227 76.39159198736908 H 0.0 **** 0.06
14919 H 262.06154825225053 253.02577625401398 75.50019314234598 H 0.0 **** 0.06
14920 H 263.0698539603171 252.23843757198088 76.73937338864746 H 0.0 **** 0.06
14921 C 271.3046146205546 21.461218765086556 293.1488486686857 C 0.0 **** -0.24
14922 H 270.7085947600918 22.11337707118375 292.51055311091216 H 0.0 **** 0.06
14923 H 271.58601452432436 21.99751882977688 294.0543185347247 H 0.0 **** 0.06
14924 H 272.20274229421045 21.15272384421479 292.61413293687656 H 0.0 **** 0.06
14925 H 270.71937056814767 20.58069933449505 293.414007642809 H 0.0 **** 0.06
14926 C 226.37521816300256 295.2180775100261 127.23910106775364 C 0.0 **** -0.24
14927 H 226.15193717356817 295.9666602894886 127.99819313368226 H 0.0 **** 0.06
14928 H 226.84006760179903 295.7001229750622 126.37908855697043 H 0.0 **** 0.06
14929 H 225.45165906213853 294.73012416667945 126.92798136288624 H 0.0 **** 0.06
14930 H 227.05695062437354 294.4744260811143 127.65213103584094 H 0.0 **** 0.06
14931 C 252.38401642355575 205.9655037464873 43.8426015485405 C 0.0 **** -0.24
14932 H 253.29523499572684 205.80433798883774 44.41897960506867 H 0.0 **** 0.06
14933 H 251.5903724994123 205.32720755088525 44.23231765432058 H 0.0 **** 0.06
14934 H 252.56766576866846 205.72055657268646 42.79672624637425 H 0.0 **** 0.06
14935 H 252.08281440848958 207.01002698117014 43.92379212283075 H 0.0 **** 0.06
14936 C 95.87188058869819 222.9228545138938 193.54517058689208 C 0.0 **** -0.24
14937 H 96.22683581058493 223.26413082410832 192.5730756237014 H 0.0 **** 0.06
14938 H 96.53267554034073 223.29956691340522 194.32619245081628 H 0.0 **** 0.06
14939 H 95.86765923450014 221.8320754386213 193.56722844191177 H 0.0 **** 0.06
14940 H 94.86124053093957 223.29261016410408 193.71421134044056 H 0.0 **** 0.06
14941 C 111.53117639578792 220.8124880195004 278.85171127546107 C 0.0 **** -0.24
14942 H 110.81757919651585 220.31684819389574 279.51048252089856 H 0.0 **** 0.06
14943 H 111.06511233887724 220.99603320617229 277.883934541644 H 0.0 **** 0.06
14944 H 112.40630177231259 220.17672672528946 278.7195995828257 H 0.0 **** 0.06
14945 H 111.8349715283938 221.76136713828504 279.2949271255701 H 0.0 **** 0.06
14946 C 199.84507215119413 17.02082073329177 0.8891722941148004 C 0.0 **** -0.24
14947 H 200.62088963600064 17.39049049385983 1.560301828711573 H 0.0 **** 0.06
14948 H 199.109581489905 17.80723200935313 0.7158484701294867 H 0.0 **** 0.06
14949 H 199.35523600188463 16.158199576380014 1.3415434239236106 H 0.0 **** 0.06
14950 H 200.2943087403347 16.727587518301164 -0.059309184594994235 H 0.0 **** 0.06
14951 C 125.20310401210784 193.48979587250034 144.28954342934355 C 0.0 **** -0.24
14952 H 124.37041210621766 192.94459371090807 144.73370684735593 H 0.0 **** 0.06
14953 H 126.11371639482681 193.2825826808865 144.85179527006792 H 0.0 **** 0.06
14954 H 124.99350641664316 194.55914296984457 144.3170385873551 H 0.0 **** 0.06
14955 H 125.33382120471578 193.17244605957228 143.2546823446648 H 0.0 **** 0.06
14956 C 3.8810903653156714 155.1983599574723 158.9399991928599 C 0.0 **** -0.24
14957 H 4.09316703567319 155.62542786451468 157.95981408854874 H 0.0 **** 0.06
14958 H 3.160477823572748 155.8296064342652 159.46193099823165 H 0.0 **** 0.06
14959 H 4.8031056656923425 155.14339223068424 159.5185713005696 H 0.0 **** 0.06
14960 H 3.4672948126830505 154.19796403988386 158.81924078994 H 0.0 **** 0.06
14961 C 217.09147386112787 84.4160365988233 59.16133292292366 C 0.0 **** -0.24
14962 H 217.08286873235528 83.49319073097814 59.740346567690295 H 0.0 **** 0.06
14963 H 217.5695040563638 84.23689304087839 58.198906269883224 H 0.0 **** 0.06
14964 H 217.646128315716 85.1807982421904 59.70617365232445 H 0.0 **** 0.06
14965 H 216.06723335875807 84.7547988650735 59.002478037766224 H 0.0 **** 0.06
14966 C 295.21576199720204 109.58439196772756 188.4424314755936 C 0.0 **** -0.24
14967 H 295.92046214371305 108.777260356542 188.64176941555712 H 0.0 **** 0.06
14968 H 295.73986038582626 110.41688357895572 187.9724421687905 H 0.0 **** 0.06
14969 H 294.7701992063504 109.91711893085693 189.3797835526039 H 0.0 **** 0.06
14970 H 294.43217445314883 109.22496332759289 187.77600671624322 H 0.0 **** 0.06
14971 C 185.8715195413577 286.9174765095861 186.35204109562153 C 0.0 **** -0.24
14972 H 185.8261408648084 285.83808679573934 186.49601668470768 H 0.0 **** 0.06
14973 H 184.97026807194038 287.2546573636164 185.83974702793546 H 0.0 **** 0.06
14974 H 186.7462769703136 287.1676142542387 185.7522703924442 H 0.0 **** 0.06
14975 H 185.94322650276655 287.4096274771003 187.32257285302717 H 0.0 **** 0.06
14976 C 119.22567615907522 15.324413546315384 89.57931437490097 C 0.0 **** -0.24
14977 H 120.11236620150163 15.313679945278949 90.21341366509574 H 0.0 **** 0.06
14978 H 119.33460600381301 16.094287303813516 88.81524432732238 H 0.0 **** 0.06
14979 H 118.34659132819314 15.538231718427966 90.18796041586637 H 0.0 **** 0.06
14980 H 119.10857570905142 14.351797025855888 89.10138975877737 H 0.0 **** 0.06
14981 C 94.4661503308131 156.39431928310802 13.093542632438144 C 0.0 **** -0.24
14982 H 95.32270576788224 155.73169649151083 13.220818604502682 H 0.0 **** 0.06
14983 H 94.81756236157224 157.40509484269245 12.883481431729592 H 0.0 **** 0.06
14984 H 93.87079760225257 156.39831802248403 14.005855343433836 H 0.0 **** 0.06
14985 H 93.85509212308571 156.0422549783147 12.262125803031779 H 0.0 **** 0.06
14986 C 69.9932513968561 275.3748535529793 230.67630850894616 C 0.0 **** -0.24
14987 H 69.55843430381313 275.9041672590158 231.52491410158052 H 0.0 **** 0.06
14988 H 71.0763541940745 275.3389859990638 230.78774545696632 H 0.0 **** 0.06
14989 H 69.73962038504803 275.89826770096187 229.75397760658083 H 0.0 **** 0.06
14990 H 69.59653144105931 274.35986751040184 230.64008747144945 H 0.0 **** 0.06
14991 C 180.03462364741142 25.196521016957774 97.49139169635671 C 0.0 **** -0.24
14992 H 180.06334688570718 24.4318149116026 96.71516950004897 H 0.0 **** 0.06
14993 H 179.00532318631656 25.521777800097993 97.64266937450253 H 0.0 **** 0.06
14994 H 180.64378791824663 26.046899896902175 97.18585937523488 H 0.0 **** 0.06
14995 H 180.42632825627737 24.7838905818669 98.42201674482254 H 0.0 **** 0.06
14996 C 193.5565867129353 228.67924580901624 229.84850030241046 C 0.0 **** -0.24
14997 H 193.68279042667456 229.7183818593861 229.5467781862343 H 0.0 **** 0.06
14998 H 193.4525027843623 228.62601062975426 230.93286366761026 H 0.0 **** 0.06
14999 H 194.42760775224036 228.10192913518966 229.53806003723037 H 0.0 **** 0.06
15000 H 192.66333975904223 228.26970008484113 229.37655270972948 H 0.0 **** 0.06
15001 C 21.413181620351367 183.08832980843187 62.70525012588709 C 0.0 **** -0.24
15002 H 20.81925595902416 184.0003618807554 62.77456941218858 H 0.0 **** 0.06
15003 H 20.752521209259456 182.2222403844131 62.73296794286216 H 0.0 **** 0.06
15004 H 22.107828754113456 183.04367102979847 63.544803166935594 H 0.0 **** 0.06
15005 H 21.97323233283973 183.08928632990552 61.77065201435647 H 0.0 **** 0.06
15006 C 196.7885092812619 24.077151191049268 71.26689564464095 C 0.0 **** -0.24
15007 H 196.6265562261362 23.003747476068952 71.17098412090297 H 0.0 **** 0.06
15008 H 196.40783575102165 24.41746466858632 72.23114134004098 H 0.0 **** 0.06
15009 H 196.26269165720686 24.59695826869094 70.46578967175563 H 0.0 **** 0.06
15010 H 197.85507886503922 24.291794403402264 71.20129104426826 H 0.0 **** 0.06
15011 C 238.9490407785001 211.92048933959404 47.30810279915397 C 0.0 **** -0.24
15012 H 238.49833103269313 210.99308121753072 46.954455727968934 H 0.0 **** 0.06
15013 H 239.8354677627578 212.1423092065569 46.714264861766196 H 0.0 **** 0.06
15014 H 239.23049851719227 211.81083089523793 48.354720164918064 H 0.0 **** 0.06
15015 H 238.23067475139754 212.73414429359696 47.20794683612101 H 0.0 **** 0.06
15016 C 226.78237637787993 190.14581049402187 279.50913411469276 C 0.0 **** -0.24
15017 H 226.57800044150775 189.86808597675173 278.47565749957255 H 0.0 **** 0.06
15018 H 226.41445097138143 189.3645010554394 280.17492147624785 H 0.0 **** 0.06
15019 H 226.28017239851934 191.08576508554324 279.7393142216802 H 0.0 **** 0.06
15020 H 227.85709534616143 190.2651139858392 279.6480231638907 H 0.0 **** 0.06
15021 C 270.85916811689964 247.59306239454244 300.34108193615435 C 0.0 **** -0.24
15022 H 271.25457013717033 248.57099661249646 300.0664489852056 H 0.0 **** 0.06
15023 H 271.0717876995611 247.39738733201895 301.3921963609313 H 0.0 **** 0.06
15024 H 271.33030514394824 246.82615442369655 299.72663550728015 H 0.0 **** 0.06
15025 H 269.7821984673129 247.57857345922952 300.1783650422103 H 0.0 **** 0.06
15026 C 135.80656669413747 200.53405955603722 226.6337576445631 C 0.0 **** -0.24
15027 H 136.26291526587787 200.53807103515072 227.62361886666213 H 0.0 **** 0.06
15028 H 134.93676878890858 199.87606789164903 226.6377488809469 H 0.0 **** 0.06
15029 H 136.5300931121811 200.17578413364254 225.9020886005686 H 0.0 **** 0.06
15030 H 135.49574296006776 201.5455007982817 226.37376040263769 H 0.0 **** 0.06
15031 C 108.79347873664736 114.71722208898723 234.39633347243216 C 0.0 **** -0.24
15032 H 109.49414312736172 114.00634923476449 233.9597793050973 H 0.0 **** 0.06
15033 H 108.86952294645755 114.68032539882446 235.48386198712757 H 0.0 **** 0.06
15034 H 107.778684477057 114.45965851927366 234.09379262182495 H 0.0 **** 0.06
15035 H 109.03313753240033 115.72241083906835 234.04948251241095 H 0.0 **** 0.06
15036 C 21.93552766415189 305.76688574010865 214.15432457121364 C 0.0 **** -0.24
15037 H 21.99151732668298 305.96299473514796 215.22438193556556 H 0.0 **** 0.06
15038 H 22.693432713658638 305.0319766563938 213.88023894327068 H 0.0 **** 0.06
15039 H 22.109954670604793 306.6916759620641 213.60474508385835 H 0.0 **** 0.06
15040 H 20.94688311067904 305.37851635077425 213.90841703363984 H 0.0 **** 0.06
15041 C 272.415808669659 127.50175998196843 142.43574649474078 C 0.0 **** -0.24
15042 H 271.7629530688332 128.3262472620361 142.14902774772457 H 0.0 **** 0.06
15043 H 273.0026606568 127.79010368398832 143.30745401537104 H 0.0 **** 0.06
15044 H 273.0856657635038 127.26487789700332 141.6084812975496 H 0.0 **** 0.06
15045 H 271.8114317037217 126.62654559492651 142.67597682934206 H 0.0 **** 0.06
15046 C 261.24058430382365 104.01360934228279 281.737713492548 C 0.0 **** -0.24
15047 H 261.5131549223183 104.9013864467808 281.1668856538468 H 0.0 **** 0.06
15048 H 261.95514235123926 103.87028891231833 282.54897510662147 H 0.0 **** 0.06
15049 H 261.2545317836729 103.14191936364432 281.0839945960307 H 0.0 **** 0.06
15050 H 260.2408070362636 104.14084043150717 282.15214444266195 H 0.0 **** 0.06
15051 C 242.7585755576597 47.70358748459731 258.68521208247256 C 0.0 **** -0.24
15052 H 243.56267576931796 47.36109291242556 259.33676458912635 H 0.0 **** 0.06
15053 H 242.95310812405958 47.37376209878357 257.6643797513655 H 0.0 **** 0.06
15054 H 242.70875396867962 48.79236311706239 258.711399552857 H 0.0 **** 0.06
15055 H 241.81111319268817 47.287389037943996 259.02796603385127 H 0.0 **** 0.06
15056 C 108.09886447157561 314.1101929964864 1.5342797603375402 C 0.0 **** -0.24
15057 H 108.58566202014043 313.1348556496383 1.5072879011381133 H 0.0 **** 0.06
15058 H 107.10691072557228 314.03349374101606 1.0881000390656936 H 0.0 **** 0.06
15059 H 108.696124120956 314.8296372010938 0.9735371272675479 H 0.0 **** 0.06
15060 H 108.00713393276689 314.4416288710413 2.568917437071491 H 0.0 **** 0.06
15061 C 77.36135168641704 129.20069950981713 166.52166462277904 C 0.0 **** -0.24
15062 H 78.03014740614537 129.97924957872033 166.15521896014997 H 0.0 **** 0.06
15063 H 77.45436575968154 129.12178441065237 167.60497350797658 H 0.0 **** 0.06
15064 H 77.62706937867105 128.248356031721 166.0634208500872 H 0.0 **** 0.06
15065 H 76.33287482861718 129.45365662017184 166.26285309660142 H 0.0 **** 0.06
15066 C 71.45284977070037 307.2586311863636 257.55075672387227 C 0.0 **** -0.24
15067 H 71.08672901307207 306.42876157392436 258.15543628224094 H 0.0 **** 0.06
15068 H 71.75128240837532 306.888365104438 256.5703035958048 H 0.0 **** 0.06
15069 H 72.31178713252905 307.71513945804503 258.0436382114517 H 0.0 **** 0.06
15070 H 70.66250701839678 308.0005032070238 257.4359064332683 H 0.0 **** 0.06
15071 C 238.1715117838516 172.63426337901274 208.38872605210813 C 0.0 **** -0.24
15072 H 238.33779683897734 172.79764611922502 207.32426858114678 H 0.0 **** 0.06
15073 H 238.84956170926029 171.85995338009116 208.74816405228356 H 0.0 **** 0.06
15074 H 237.1401898443407 172.3181809615316 208.55115240633535 H 0.0 **** 0.06
15075 H 238.35626119164252 173.56159789009797 208.9322614393289 H 0.0 **** 0.06
15076 C 313.9350293942503 187.47432878422978 305.64222591283146 C 0.0 **** -0.24
15077 H 313.80243056372274 188.26865292857923 306.37741844408794 H 0.0 **** 0.06
15078 H 312.97249557427256 187.00812162198912 305.4338491546785 H 0.0 **** 0.06
15079 H 314.62377395582604 186.72705974370677 306.0361183589973 H 0.0 **** 0.06
15080 H 314.34306819462563 187.89550471500678 304.7229938822046 H 0.0 **** 0.06
15081 C 187.26589374448616 288.763920057191 260.01170640596933 C 0.0 **** -0.24
15082 H 187.86560781802973 289.1291126621839 259.1775524966134 H 0.0 **** 0.06
15083 H 186.22650306400078 289.0586369414568 259.86692615312114 H 0.0 **** 0.06
15084 H 187.638641773478 289.1916150481281 260.94198445464826 H 0.0 **** 0.06
15085 H 187.33315287025005 287.67768427882106 260.0583581691078 H 0.0 **** 0.06
15086 C 286.7057003435715 66.76295313856687 313.12456069671066 C 0.0 **** -0.24
15087 H 287.71139305174404 67.09797741448529 313.3776066596582 H 0.0 **** 0.06
15088 H 285.9972276008341 67.1560760947684 313.85497090508267 H 0.0 **** 0.06
15089 H 286.6723826497953 65.67378588580033 313.1343061555312 H 0.0 **** 0.06
15090 H 286.4415184300617 67.12535731133045 312.13128204476635 H 0.0 **** 0.06
15091 C 88.37776945511587 78.87551959764991 126.0932823702571 C 0.0 **** -0.24
15092 H 87.88549977946226 77.90999599684363 126.21398488599698 H 0.0 **** 0.06
15093 H 88.24510713719513 79.22484489920635 125.06956224692652 H 0.0 **** 0.06
15094 H 89.44192061297076 78.76861140992958 126.30663491480993 H 0.0 **** 0.06
15095 H 87.93957822268729 79.59582397429446 126.78325004584806 H 0.0 **** 0.06
15096 C 255.27747689460722 175.17245668494337 231.00660240240836 C 0.0 **** -0.24
15097 H 255.58612409036266 174.60522537059677 230.12880806888037 H 0.0 **** 0.06
15098 H 254.62543262554476 174.55616134309815 231.62590255144673 H 0.0 **** 0.06
15099 H 254.74021806064724 176.066752556786 230.69125943394886 H 0.0 **** 0.06
15100 H 256.1578330534523 175.46082863638617 231.58085496049205 H 0.0 **** 0.06
15101 C 267.03708434014294 253.7223222905692 89.87092763725124 C 0.0 **** -0.24
15102 H 267.2029567574496 254.78057345176416 90.0712727605958 H 0.0 **** 0.06
15103 H 267.97770049218536 253.2568499728392 89.57585963216957 H 0.0 **** 0.06
15104 H 266.30881736959464 253.61316424387346 89.06761506538044 H 0.0 **** 0.06
15105 H 266.6595535541017 253.23760299375107 90.77166792281338 H 0.0 **** 0.06
15106 C 288.79615166478493 252.5127637315232 130.11934765484125 C 0.0 **** -0.24
15107 H 289.57410497501814 251.78119304541497 129.90297223036777 H 0.0 **** 0.06
15108 H 288.9578034578046 253.40431912355433 129.51162399993953 H 0.0 **** 0.06
15109 H 288.83275620328476 252.7802496651811 131.17517705916038 H 0.0 **** 0.06
15110 H 287.8210414449432 252.0859689166714 129.88579125352646 H 0.0 **** 0.06
15111 C 94.23142355570772 90.16802523561094 18.838478663048477 C 0.0 **** -0.24
15112 H 93.33612216977673 90.37660146645104 19.42450403449982 H 0.0 **** 0.06
15113 H 95.08563128318534 90.0612778347672 19.506254445526565 H 0.0 **** 0.06
15114 H 94.41159487909198 90.98986685092521 18.145377657218205 H 0.0 **** 0.06
15115 H 94.09012255947815 89.2437420736018 18.276953043446724 H 0.0 **** 0.06
15116 C 87.69084957833721 173.06391656975205 228.60666837019747 C 0.0 **** -0.24
15117 H 86.87701688670143 172.90429707891906 227.89948217317055 H 0.0 **** 0.06
15118 H 88.37779848761787 172.21908173289125 228.56678553552763 H 0.0 **** 0.06
15119 H 87.28356211742596 173.15455216445412 229.61411934537676 H 0.0 **** 0.06
15120 H 88.22358497372244 173.97918681576323 228.3471982783103 H 0.0 **** 0.06
15121 C 41.179451987229754 58.03383628115816 211.66557119579014 C 0.0 **** -0.24
15122 H 40.9810543386792 59.10370268969237 211.60622822521714 H 0.0 **** 0.06
15123 H 40.30613240591856 57.52378166395471 212.07249446592988 H 0.0 **** 0.06
15124 H 42.03755706960328 57.85931084169411 212.31543494546133 H 0.0 **** 0.06
15125 H 41.395138090288356 57.648586404518056 210.66896225155477 H 0.0 **** 0.06
15126 C 116.84973519490327 289.770104910708 21.452568051523684 C 0.0 **** -0.24
15127 H 115.8011769656895 289.5815718485047 21.68080317125404 H 0.0 **** 0.06
15128 H 117.06021962920354 290.83450990416463 21.567931277363698 H 0.0 **** 0.06
15129 H 117.0581830038 289.46808805381494 20.426681764170553 H 0.0 **** 0.06
15130 H 117.47887454918617 289.19929747742344 22.135545281677878 H 0.0 **** 0.06
15131 C 265.89777610759626 230.81799494739607 61.96186973146936 C 0.0 **** -0.24
15132 H 265.35561103741173 230.43141298978327 62.8250474526202 H 0.0 **** 0.06
15133 H 265.34749655940027 230.5776481446142 61.051371411959366 H 0.0 **** 0.06
15134 H 266.8867931758912 230.36109310486486 61.9195223870656 H 0.0 **** 0.06
15135 H 265.99917883432556 231.89944314296687 62.051064102062355 H 0.0 **** 0.06
15136 C 73.66606219109232 266.0297052159889 116.29829642261322 C 0.0 **** -0.24
15137 H 73.98762246461737 265.1224194540616 115.7866570107999 H 0.0 **** 0.06
15138 H 74.45060616778804 266.3588480131167 116.98059996461919 H 0.0 **** 0.06
15139 H 72.75564315073032 265.8250649966171 116.86250108924398 H 0.0 **** 0.06
15140 H 73.47126700897192 266.81122287103443 115.56420627857864 H 0.0 **** 0.06
15141 C 250.64449666964458 227.91516628786422 102.14025916175333 C 0.0 **** -0.24
15142 H 251.27356701604296 227.12263512031265 101.73447449045975 H 0.0 **** 0.06
15143 H 250.05316135481937 228.35571936661756 101.33690999431144 H 0.0 **** 0.06
15144 H 251.2730372751221 228.6824667587626 102.59181762179705 H 0.0 **** 0.06
15145 H 249.97880689665064 227.4994810367137 102.89595701351561 H 0.0 **** 0.06
15146 C 266.1491110588411 259.58555307909046 259.85218393940613 C 0.0 **** -0.24
15147 H 265.0994132451774 259.4050169812582 260.08653532741204 H 0.0 **** 0.06
15148 H 266.409859068916 260.6093394997141 260.1222324432276 H 0.0 **** 0.06
15149 H 266.31332128122585 259.43752730200475 258.7850997254778 H 0.0 **** 0.06
15150 H 266.77070923546967 258.89045263058983 260.4152091752887 H 0.0 **** 0.06
15151 C 88.21162156774125 272.7199891266986 9.776658462822923 C 0.0 **** -0.24
15152 H 88.46304610244286 273.4579128204077 9.01586041563452 H 0.0 **** 0.06
15153 H 87.36700686133707 272.1205370323089 9.43525907873159 H 0.0 **** 0.06
15154 H 87.94575783334452 273.2295859335703 10.70312860366829 H 0.0 **** 0.06
15155 H 89.07067547384062 272.07192072050736 9.952385753257317 H 0.0 **** 0.06
15156 C 159.47319650322885 130.08340062113868 251.99994939600978 C 0.0 **** -0.24
15157 H 159.28590952279484 130.58016017439414 252.9514071610837 H 0.0 **** 0.06
15158 H 159.6071179892965 130.83234515249114 251.2183903888933 H 0.0 **** 0.06
15159 H 158.62629987951806 129.4450907953937 251.75031562417914 H 0.0 **** 0.06
15160 H 160.3754380974624 129.475965990023 252.07940145716827 H 0.0 **** 0.06
15161 C 67.79808262254926 27.59102663957077 303.0926934249198 C 0.0 **** -0.24
15162 H 68.20500759464778 26.775617949335157 302.4956280350365 H 0.0 **** 0.06
15163 H 66.89164291911163 27.969633595472146 302.6196889961358 H 0.0 **** 0.06
15164 H 68.53376167618853 28.39254895611694 303.1632530343184 H 0.0 **** 0.06
15165 H 67.56141838749346 27.226240976641805 304.0930672638775 H 0.0 **** 0.06
15166 C 245.89073503292437 0.795490839314084 9.080311907551405 C 0.0 **** -0.24
15167 H 245.10088967094842 0.9983055922149333 8.357521601156677 H 0.0 **** 0.06
15168 H 245.45981449367108 0.3368007328562612 9.969927117816795 H 0.0 **** 0.06
15169 H 246.3810840603607 1.729114858154901 9.354013145674926 H 0.0 **** 0.06
15170 H 246.62121221818126 0.11743806962033432 8.638405949612576 H 0.0 **** 0.06
15171 C 81.6154572251445 263.6970818137425 200.16049942273662 C 0.0 **** -0.24
15172 H 82.45486947982644 263.08033902430225 199.8381568226232 H 0.0 **** 0.06
15173 H 81.35297766594402 263.4433195527355 201.18798156366182 H 0.0 **** 0.06
15174 H 80.76015470988077 263.5150574140496 199.5100256924136 H 0.0 **** 0.06
15175 H 81.89592088935336 264.74883094240226 200.10591689741443 H 0.0 **** 0.06
15176 C 243.0574520805626 129.71866873024044 190.59807149935403 C 0.0 **** -0.24
15177 H 243.33380827833588 128.66844174377584 190.69307086787512 H 0.0 **** 0.06
15178 H 243.24207055409525 130.05099354429288 189.57643575807367 H 0.0 **** 0.06
15179 H 243.65456185794085 130.31478499260555 191.28750362903168 H 0.0 **** 0.06
15180 H 242.00054580513364 129.83857051286358 190.83552472867137 H 0.0 **** 0.06
15181 C 154.76228761199184 89.43320787128494 173.46628276882558 C 0.0 **** -0.24
15182 H 154.74008222224842 89.25237749615388 174.54126353566397 H 0.0 **** 0.06
15183 H 154.09067557768412 90.25580891924659 173.22329895200716 H 0.0 **** 0.06
15184 H 154.44201801552623 88.53418738127445 172.94100295017688 H 0.0 **** 0.06
15185 H 155.7771720241392 89.68926756330771 173.16220150718266 H 0.0 **** 0.06
15186 C 285.60236079780225 179.26231557316908 140.91730765654444 C 0.0 **** -0.24
15187 H 285.84172475253536 179.19689778997247 139.85601751718704 H 0.0 **** 0.06
15188 H 285.58668918619117 178.26187329824324 141.34884212990033 H 0.0 **** 0.06
15189 H 284.62441829942964 179.72722724764412 141.04097233794664 H 0.0 **** 0.06
15190 H 286.35710058808485 179.86458904391543 141.4233322278839 H 0.0 **** 0.06
15191 C 309.2309843297685 226.11746350736405 250.05677504785098 C 0.0 **** -0.24
15192 H 308.5962064515775 226.59322730045884 250.80404019936378 H 0.0 **** 0.06
15193 H 309.08668813658693 225.0372650727383 250.09186498820526 H 0.0 **** 0.06
15194 H 310.2754216862102 226.35216205270856 250.26468501871025 H 0.0 **** 0.06
15195 H 308.9665010282363 226.4876054192597 249.06626311048444 H 0.0 **** 0.06
15196 C 150.25229424393814 26.421266798226952 90.68600344379416 C 0.0 **** -0.24
15197 H 150.1918686997878 26.572781181987295 89.60819896438937 H 0.0 **** 0.06
15198 H 149.29797623061972 26.044167416277844 91.05433554631878 H 0.0 **** 0.06
15199 H 150.48060881572036 27.370615776241266 91.17246344512566 H 0.0 **** 0.06
15200 H 151.0391478726877 25.70093581505506 90.90883070780868 H 0.0 **** 0.06
15201 C 44.50049322082441 116.30970325729047 267.3419462948249 C 0.0 **** -0.24
15202 H 44.33065581854237 116.47118610947476 266.2771585705138 H 0.0 **** 0.06
15203 H 44.50081875794427 115.24027569718999 267.550788182405 H 0.0 **** 0.06
15204 H 43.70679919293187 116.79167377726674 267.912301934248 H 0.0 **** 0.06
15205 H 45.46243346978565 116.73652246360359 267.6251523518262 H 0.0 **** 0.06
15206 C 300.0065230621103 219.4448177731444 121.34269434469473 C 0.0 **** -0.24
15207 H 299.55640053373975 220.43819072382254 121.315912833747 H 0.0 **** 0.06
15208 H 300.9127878544682 219.47444694278533 121.94864945368545 H 0.0 **** 0.06
15209 H 300.25618227297883 219.13256979099992 120.32848143430064 H 0.0 **** 0.06
15210 H 299.3000667644558 218.73813272663546 121.7776162829893 H 0.0 **** 0.06
15211 C 209.64894987986543 45.5118677780479 286.75496939311995 C 0.0 **** -0.24
15212 H 208.74830514124375 44.98464549150748 286.4396361291487 H 0.0 **** 0.06
15213 H 209.50573941440405 45.90585356444697 287.7616835122294 H 0.0 **** 0.06
15214 H 209.84770447018457 46.33374724227744 286.06796713409324 H 0.0 **** 0.06
15215 H 210.49281419005166 44.822511679190626 286.75157212558406 H 0.0 **** 0.06
15216 C 286.6577851338745 103.37867922237811 296.409053249042 C 0.0 **** -0.24
15217 H 287.41868727223874 102.95630978123526 297.06517468588595 H 0.0 **** 0.06
15218 H 287.00928385333884 103.34428329765103 295.37660764170107 H 0.0 **** 0.06
15219 H 286.4674157370459 104.41411670962282 296.6927063046903 H 0.0 **** 0.06
15220 H 285.73845926801 102.8013895865993 296.4995406625421 H 0.0 **** 0.06
15221 C 267.1187717010514 37.34161650755047 132.03478499573936 C 0.0 **** -0.24
15222 H 266.71201495722204 36.733407704125796 132.84269424352343 H 0.0 **** 0.06
15223 H 266.75472282878343 38.364248544900136 132.13059982738164 H 0.0 **** 0.06
15224 H 266.8031714124526 36.93057839317254 131.07619672470923 H 0.0 **** 0.06
15225 H 268.20790638151 37.336894672185224 132.09097848158908 H 0.0 **** 0.06
15226 C 57.70298166370222 308.0623643767157 82.12880357871117 C 0.0 **** -0.24
15227 H 58.688556702525005 307.62094112603984 82.27962370472994 H 0.0 **** 0.06
15228 H 57.00786847175803 307.2936746266334 81.79128162694116 H 0.0 **** 0.06
15229 H 57.76930507350889 308.8492860340474 81.37643739946981 H 0.0 **** 0.06
15230 H 57.34920297657098 308.4872734580023 83.06797143457953 H 0.0 **** 0.06
15231 C 227.95073999238053 177.104381330899 129.9260145984557 C 0.0 **** -0.24
15232 H 228.92881731417546 176.63543832650151 130.0374262899374 H 0.0 **** 0.06
15233 H 227.50782315375017 177.25720884838745 130.9111134677184 H 0.0 **** 0.06
15234 H 227.30390823696422 176.4589850752957 129.33258162092406 H 0.0 **** 0.06
15235 H 228.0644331820136 178.0660602737679 129.42574485216468 H 0.0 **** 0.06
15236 C 293.0606682383414 243.229818364407 300.7403032864689 C 0.0 **** -0.24
15237 H 292.5933189838971 242.40533340875112 301.27836051426175 H 0.0 **** 0.06
15238 H 293.60759869191065 242.84022158187616 299.8816661242901 H 0.0 **** 0.06
15239 H 293.74889453920065 243.75270419961913 301.40485299471743 H 0.0 **** 0.06
15240 H 292.29016865561357 243.9221951568165 300.3986483028093 H 0.0 **** 0.06
15241 C 104.57812766090464 46.158014976993115 56.76090456644661 C 0.0 **** -0.24
15242 H 103.72967353266694 46.24547398697604 56.082093941372705 H 0.0 **** 0.06
15243 H 104.56013824013641 45.180162537286094 57.24063921223032 H 0.0 **** 0.06
15244 H 104.51650651423472 46.936593412696936 57.520969564838765 H 0.0 **** 0.06
15245 H 105.50550703824157 46.27138428691245 56.19885986800338 H 0.0 **** 0.06
15246 C 91.29512271888771 277.75094335908955 159.14566422317745 C 0.0 **** -0.24
15247 H 91.50787356318477 278.66930446887665 159.6931058194259 H 0.0 **** 0.06
15248 H 91.88003081506284 276.93291792826085 159.56721287691482 H 0.0 **** 0.06
15249 H 91.5599069439804 277.8833580822168 158.0964173469573 H 0.0 **** 0.06
15250 H 90.23326013758594 277.5175162956964 159.22637368038625 H 0.0 **** 0.06
15251 C 15.56875221370666 121.2552791738861 292.37107520106633 C 0.0 **** -0.24
15252 H 15.74648974150307 120.662684828348 291.47346467059356 H 0.0 **** 0.06
15253 H 16.381663914078047 121.96954025591788 292.5008905425413 H 0.0 **** 0.06
15254 H 15.521955959461252 120.59595930402728 293.2375518411505 H 0.0 **** 0.06
15255 H 14.62492012222964 121.79152091074434 292.27039186315955 H 0.0 **** 0.06
15256 C 178.39294355524618 301.92755187309893 269.98777553178746 C 0.0 **** -0.24
15257 H 178.17878047685332 301.8563793306493 268.9214927390723 H 0.0 **** 0.06
15258 H 178.71482736218945 302.9419102938055 270.22663776362157 H 0.0 **** 0.06
15259 H 179.18443520424012 301.22408822113425 270.2469129693452 H 0.0 **** 0.06
15260 H 177.49429389503126 301.688584933823 270.55572265625216 H 0.0 **** 0.06
15261 C 10.496055562624917 61.66073265138672 185.81084426513127 C 0.0 **** -0.24
15262 H 11.551940954605527 61.63707333435639 186.08103054762074 H 0.0 **** 0.06
15263 H 10.286049257033312 62.571389124605076 185.2485334115609 H 0.0 **** 0.06
15264 H 9.889261108252526 61.64410403579947 186.7168902546096 H 0.0 **** 0.06
15265 H 10.258441469063087 60.79146945470757 185.1981939698524 H 0.0 **** 0.06
15266 C 153.704133944839 312.92130063268087 12.99859608780146 C 0.0 **** -0.24
15267 H 153.8881876545471 312.8239972650084 11.929294151753837 H 0.0 **** 0.06
15268 H 153.1162183778103 313.8208259289617 13.1848885557378 H 0.0 **** 0.06
15269 H 154.65507147918595 312.9924756136485 13.52595770462176 H 0.0 **** 0.06
15270 H 153.15571548450015 312.0492035805377 13.353531673943493 H 0.0 **** 0.06
15271 C 126.50803922481941 136.43413887842726 166.3209409007132 C 0.0 **** -0.24
15272 H 127.0058892146933 136.3824240644749 167.28959167304703 H 0.0 **** 0.06
15273 H 125.61912965704556 135.80224465729654 166.33586841345596 H 0.0 **** 0.06
15274 H 127.18854140466726 136.08559072465576 165.54395613996167 H 0.0 **** 0.06
15275 H 126.21802895594942 137.4646507381252 166.11607094050044 H 0.0 **** 0.06
15276 C 54.165615036557995 262.98494163478506 189.2488212518822 C 0.0 **** -0.24
15277 H 54.64981402088975 262.0594912119241 189.56102664835493 H 0.0 **** 0.06
15278 H 54.18034371998465 263.6981249203284 190.07458334163965 H 0.0 **** 0.06
15279 H 53.13429696388644 262.77788853146734 188.96533158768125 H 0.0 **** 0.06
15280 H 54.698961087424834 263.40471010835677 188.39655382689034 H 0.0 **** 0.06
15281 C 308.7619686107925 150.81698110947474 235.31434183928184 C 0.0 **** -0.24
15282 H 309.1870550010396 151.81870267064693 235.26187452350845 H 0.0 **** 0.06
15283 H 309.23984699852974 150.26051502408717 236.1210785346405 H 0.0 **** 0.06
15284 H 308.92821666175155 150.3017606791529 234.36827004293002 H 0.0 **** 0.06
15285 H 307.6907804185746 150.88795035090106 235.50584530740267 H 0.0 **** 0.06
15286 C 292.7428719471141 276.54993735074 194.28466863097384 C 0.0 **** -0.24
15287 H 292.88701935755256 277.2165877147653 193.4342057170923 H 0.0 **** 0.06
15288 H 291.7926178484231 276.7768341833728 194.7674339182655 H 0.0 **** 0.06
15289 H 293.5564548708337 276.6891840387032 194.9975245366266 H 0.0 **** 0.06
15290 H 292.73717239848 275.5154251320255 193.9381353072331 H 0.0 **** 0.06
15291 C 200.41368497776443 290.00351188643066 228.01634443659594 C 0.0 **** -0.24
15292 H 199.41441888147352 290.28922546177665 227.68904890051613 H 0.0 **** 0.06
15293 H 201.12276336242155 290.166898240397 227.20445891748886 H 0.0 **** 0.06
15294 H 200.4167846340933 288.94989845928353 228.2960755384933 H 0.0 **** 0.06
15295 H 200.70019427722212 290.60859791372593 228.87762120944365 H 0.0 **** 0.06
15296 C 17.136753182257053 155.03446873334116 60.539600985792845 C 0.0 **** -0.24
15297 H 16.285218069540633 155.26999869571478 59.90093053845288 H 0.0 **** 0.06
15298 H 17.441109563539612 155.92931488370402 61.08252999637193 H 0.0 **** 0.06
15299 H 17.964722487991935 154.68209845191353 59.924647034341376 H 0.0 **** 0.06
15300 H 16.853874077082423 154.256675919231 61.247931483417375 H 0.0 **** 0.06
15301 C 100.05488160149659 313.8971712349304 226.4459883247119 C 0.0 **** -0.24
15302 H 100.21678596677748 313.0073750062661 227.05404917366906 H 0.0 **** 0.06
15303 H 99.40146568960239 314.5876256702036 226.98133090531138 H 0.0 **** 0.06
15304 H 99.58971878630035 313.6129515107153 225.5029140717179 H 0.0 **** 0.06
15305 H 101.01105018422595 314.38172114023405 226.24878442042757 H 0.0 **** 0.06
15306 C 287.2395137568104 117.5440803649916 10.836834011681248 C 0.0 **** -0.24
15307 H 286.55146169563653 118.36800383789344 10.647190075756129 H 0.0 **** 0.06
15308 H 286.6727767600932 116.65076964310464 11.099292542788817 H 0.0 **** 0.06
15309 H 287.90470682525233 117.8077589370483 11.658322378393038 H 0.0 **** 0.06
15310 H 287.82872659904797 117.34991315017015 9.940331545781234 H 0.0 **** 0.06
15311 C 56.80313162236368 172.1004990812654 278.8198392723218 C 0.0 **** -0.24
15312 H 57.32380669019574 173.05012620204218 278.943440063075 H 0.0 **** 0.06
15313 H 55.962456201594534 172.23328733872575 278.1382386052585 H 0.0 **** 0.06
15314 H 56.43662201389611 171.7580118316008 279.7871859203415 H 0.0 **** 0.06
15315 H 57.49024850853618 171.36055326069044 278.4096979354342 H 0.0 **** 0.06
15316 C 219.80441837952003 225.73078574138964 310.1247132280521 C 0.0 **** -0.24
15317 H 220.00703668379083 226.53825429696704 310.82869881523345 H 0.0 **** 0.06
15318 H 219.33536514728672 226.1388605959158 309.22894968107374 H 0.0 **** 0.06
15319 H 219.1351720797726 225.00536288725905 310.5880677642124 H 0.0 **** 0.06
15320 H 220.7393529228765 225.24043323189193 309.8543150697149 H 0.0 **** 0.06
15321 C 5.3806991958906 161.98670557051378 207.63523753568973 C 0.0 **** -0.24
15322 H 6.145835382230956 161.52676183707968 207.00930005365439 H 0.0 **** 0.06
15323 H 4.976749799199197 162.86354850634137 207.12931491292971 H 0.0 **** 0.06
15324 H 5.822177657928236 162.28666076900987 208.58548644795096 H 0.0 **** 0.06
15325 H 4.580252138023184 161.26969835457834 207.8166114809747 H 0.0 **** 0.06
15326 C 93.07942969985595 73.27074114198896 294.7123562716304 C 0.0 **** -0.24
15327 H 93.83973339488622 72.48995346353905 294.71085940710503 H 0.0 **** 0.06
15328 H 93.35685355819197 74.04925583408104 294.0011950872972 H 0.0 **** 0.06
15329 H 93.00383298509738 73.70104206226841 295.7115517529564 H 0.0 **** 0.06
15330 H 92.118591715711 72.84250298261802 294.4278887086316 H 0.0 **** 0.06
15331 C 161.61204272085507 255.86886254497318 20.008546663985456 C 0.0 **** -0.24
15332 H 162.55325721647046 255.50430270887477 19.597084941549994 H 0.0 **** 0.06
15333 H 161.39309551114047 255.3424084497188 20.937297735556058 H 0.0 **** 0.06
15334 H 160.81049322450332 255.69136693110647 19.291652626423996 H 0.0 **** 0.06
15335 H 161.69137710115172 256.9381844641279 20.206622516120476 H 0.0 **** 0.06
15336 C 35.53521919523587 184.91751737320368 89.27596108572945 C 0.0 **** -0.24
15337 H 36.259117141951435 185.68571322737955 89.00460110176061 H 0.0 **** 0.06
15338 H 34.74082382131667 185.36285288944003 89.87564235263827 H 0.0 **** 0.06
15339 H 36.03282805443678 184.13762409404848 89.85243159373692 H 0.0 **** 0.06
15340 H 35.10810776323859 184.4838792819466 88.37116929478185 H 0.0 **** 0.06
15341 C 16.921441688632513 35.84505749986795 226.91669319034085 C 0.0 **** -0.24
15342 H 16.220635972154085 35.8811224018645 226.08213341164614 H 0.0 **** 0.06
15343 H 16.48673083971906 36.35149791600122 227.77858873718037 H 0.0 **** 0.06
15344 H 17.849629994202374 36.34146172485919 226.63353658195555 H 0.0 **** 0.06
15345 H 17.127936624276742 34.80570502793057 227.17284477123684 H 0.0 **** 0.06
15346 C 244.65450461181004 165.52625850262785 192.22952601504136 C 0.0 **** -0.24
15347 H 244.81365806939476 166.59567551552368 192.36713698329845 H 0.0 **** 0.06
15348 H 243.58502777328923 165.31610206141062 192.22204861087948 H 0.0 **** 0.06
15349 H 245.12683406882184 164.98097741081762 193.04688258758313 H 0.0 **** 0.06
15350 H 245.09464745394723 165.2122370549538 191.28265265367332 H 0.0 **** 0.06
15351 C 60.46049377222505 226.20809869847716 280.23397966555746 C 0.0 **** -0.24
15352 H 60.1472087137104 225.60573934290971 281.0866472610895 H 0.0 **** 0.06
15353 H 59.67686813362175 226.92587922662082 279.98898716103474 H 0.0 **** 0.06
15354 H 60.640523382633404 225.5592543724474 279.3775091612707 H 0.0 **** 0.06
15355 H 61.377075820204425 226.74220346245193 280.484883634134 H 0.0 **** 0.06
15356 C 213.0430687798259 286.61900403189617 302.9665190217121 C 0.0 **** -0.24
15357 H 212.90155545327832 285.78950962643734 303.6601351724483 H 0.0 **** 0.06
15358 H 212.1591784236478 287.2568414448763 302.9796956511972 H 0.0 **** 0.06
15359 H 213.19536687960903 286.2287655119476 301.96017388370893 H 0.0 **** 0.06
15360 H 213.91467798912794 287.19904019127284 303.26814591973 H 0.0 **** 0.06
15361 C 106.10424581380175 196.91509732671886 131.562085195968 C 0.0 **** -0.24
15362 H 105.70272771990994 197.8537412031422 131.94501893318122 H 0.0 **** 0.06
15363 H 106.95248623322303 197.12357416144118 130.9088823506385 H 0.0 **** 0.06
15364 H 105.33092305994538 196.3928792121252 130.99843148078148 H 0.0 **** 0.06
15365 H 106.42985975606231 196.29288353448453 132.39511514911874 H 0.0 **** 0.06
15366 C 197.5125462759632 313.69032561466355 284.84314755277353 C 0.0 **** -0.24
15367 H 198.13407771916792 314.2328102191087 284.13110158043173 H 0.0 **** 0.06
15368 H 196.87974135415976 312.9820318504612 284.3070391393695 H 0.0 **** 0.06
15369 H 196.88742195075162 314.39573380877306 285.3906493407336 H 0.0 **** 0.06
15370 H 198.15035252997575 313.1508198457318 285.5438872056843 H 0.0 **** 0.06
15371 C 282.1138277337417 67.5659021845006 187.85767655847695 C 0.0 **** -0.24
15372 H 282.407197423252 66.5834861937958 187.48899730485311 H 0.0 **** 0.06
15373 H 282.9435708560477 68.26196075330006 187.7376133813429 H 0.0 **** 0.06
15374 H 281.8491340789884 67.4934174168684 188.91314924078847 H 0.0 **** 0.06
15375 H 281.25367615822756 67.92376425907798 187.29196519037595 H 0.0 **** 0.06
15376 C 10.654588754674748 31.43580210973394 26.87392209296428 C 0.0 **** -0.24
15377 H 11.60714232955604 31.043445957330363 26.51654877175406 H 0.0 **** 0.06
15378 H 10.120669153684304 31.904017807234112 26.046136325605943 H 0.0 **** 0.06
15379 H 10.836757804932901 32.174709804997576 27.653450283114665 H 0.0 **** 0.06
15380 H 10.054667647259109 30.61971937155377 27.277684378158995 H 0.0 **** 0.06
15381 C 107.4165768657466 37.99071312726568 273.30699203058543 C 0.0 **** -0.24
15382 H 106.81627755229951 38.89750774611929 273.3705105080981 H 0.0 **** 0.06
15383 H 107.21833189852998 37.361452790401046 274.17511397765213 H 0.0 **** 0.06
15384 H 108.47430679683131 38.255402756519544 273.28458335735456 H 0.0 **** 0.06
15385 H 107.15884103105336 37.44681175190735 272.3980504016452 H 0.0 **** 0.06
15386 C 288.02471751381944 177.56154431289696 134.7870111426654 C 0.0 **** -0.24
15387 H 289.01016967058445 177.6834953259953 135.2371248497104 H 0.0 **** 0.06
15388 H 288.136539744342 177.27612867322233 133.74029004416977 H 0.0 **** 0.06
15389 H 287.4772706421539 178.50209187666434 134.85041109565398 H 0.0 **** 0.06
15390 H 287.47675522698324 176.7845550151863 135.31898887557773 H 0.0 **** 0.06
15391 C 128.1303462287238 247.4072785543721 238.62373696904885 C 0.0 **** -0.24
15392 H 127.76931655974337 246.65918687440495 237.9177357170264 H 0.0 **** 0.06
15393 H 128.4701918138593 248.28662545940352 238.0777256657895 H 0.0 **** 0.06
15394 H 128.9576274800697 246.99328002803173 239.20053702369015 H 0.0 **** 0.06
15395 H 127.32240376901063 247.68766412064974 239.29913926656766 H 0.0 **** 0.06
15396 C 272.6803396098617 275.197112560744 52.81124858048406 C 0.0 **** -0.24
15397 H 272.3741952572622 274.3358795628982 52.21604633251815 H 0.0 **** 0.06
15398 H 271.8059350644598 275.80374422646304 53.04780949244483 H 0.0 **** 0.06
15399 H 273.3955760200513 275.7940382992266 52.24643898002296 H 0.0 **** 0.06
15400 H 273.14410852948834 274.8526751859934 53.73616676006125 H 0.0 **** 0.06
15401 C 182.12031405505758 296.2749298516817 93.29961985371702 C 0.0 **** -0.24
15402 H 181.9142611958418 295.2262842063347 93.5126453848427 H 0.0 **** 0.06
15403 H 181.22226225330274 296.86577129066245 93.48033705254156 H 0.0 **** 0.06
15404 H 182.42243766586074 296.38170085838686 92.25739548751667 H 0.0 **** 0.06
15405 H 182.92273871783317 296.626124992605 93.94722002108827 H 0.0 **** 0.06
15406 C 86.49124138249087 282.9554274825583 171.03059884233153 C 0.0 **** -0.24
15407 H 87.40372830666004 283.47836962361777 170.7444686627357 H 0.0 **** 0.06
15408 H 86.29737676898608 282.15014365749386 170.3222988909733 H 0.0 **** 0.06
15409 H 85.65564471813133 283.65500256999667 171.02457725524232 H 0.0 **** 0.06
15410 H 86.6102607038294 282.5390814990287 172.03122553399248 H 0.0 **** 0.06
15411 C 121.65016155040934 38.52259830972915 83.6265537595682 C 0.0 **** -0.24
15412 H 121.12332527100872 37.855184139729886 82.94411386248993 H 0.0 **** 0.06
15413 H 122.176828308484 39.2854643967562 83.0541956514806 H 0.0 **** 0.06
15414 H 122.36712667309291 37.94785614620511 84.2134121848054 H 0.0 **** 0.06
15415 H 120.93237209042599 38.99907019068499 84.294230468352 H 0.0 **** 0.06
15416 C 115.08451330008862 292.5907706839176 217.92657702694143 C 0.0 **** -0.24
15417 H 114.02236311677319 292.3760466025601 218.04368341606335 H 0.0 **** 0.06
15418 H 115.55146685286306 292.6592669907914 218.90895576454693 H 0.0 **** 0.06
15419 H 115.20798590295433 293.53628527311406 217.39750611235758 H 0.0 **** 0.06
15420 H 115.55483756625875 291.79050618736005 217.35440644554365 H 0.0 **** 0.06
15421 C 44.74390235289658 89.66684400386885 168.10112964645504 C 0.0 **** -0.24
15422 H 44.29985610919553 89.07899160228558 168.90502008758102 H 0.0 **** 0.06
15423 H 45.61068793512155 89.13888235719338 167.70185829734095 H 0.0 **** 0.06
15424 H 45.05625860336224 90.63526722099888 168.48971089615418 H 0.0 **** 0.06
15425 H 44.00940016684697 89.81249554898821 167.30920318842936 H 0.0 **** 0.06
15426 C 1.319489649061353 68.26076743985823 234.54965428141247 C 0.0 **** -0.24
15427 H 1.3233975950137875 69.20261639651656 234.00162087208625 H 0.0 **** 0.06
15428 H 1.995244952556206 67.55523149330338 234.06498000583082 H 0.0 **** 0.06
15429 H 0.310059343638045 67.85025640774074 234.5591146457949 H 0.0 **** 0.06
15430 H 1.6499595925003803 68.43503168992564 235.57360981628557 H 0.0 **** 0.06
15431 C 87.98217155960424 237.58964983466376 193.3526737943679 C 0.0 **** -0.24
15432 H 88.56971273069621 237.42453818773723 192.4487889164992 H 0.0 **** 0.06
15433 H 88.00041525336712 238.64907916831748 193.60891392751154 H 0.0 **** 0.06
15434 H 88.4051731698674 237.0088234290407 194.17171266385918 H 0.0 **** 0.06
15435 H 86.95286885180246 237.27555343736304 193.1785653788604 H 0.0 **** 0.06
15436 C 167.90608612725651 144.88576048645376 102.51056941677794 C 0.0 **** -0.24
15437 H 167.9134073667351 144.90451740791272 101.42015393028421 H 0.0 **** 0.06
15438 H 167.08500103892993 144.25878734222363 102.85738248115109 H 0.0 **** 0.06
15439 H 167.77473587762455 145.89982470215793 102.88915524840851 H 0.0 **** 0.06
15440 H 168.85162791210735 144.48192289693415 102.87262367355584 H 0.0 **** 0.06
15441 C 21.369689034089646 220.95324993791237 191.99612113495937 C 0.0 **** -0.24
15442 H 21.72697851302533 219.92493863423033 192.0578580319941 H 0.0 **** 0.06
15443 H 21.40525516737432 221.4103603519532 192.98515069508102 H 0.0 **** 0.06
15444 H 20.34310275647033 220.95755398316965 191.62965634790135 H 0.0 **** 0.06
15445 H 22.00232968719456 221.51683849138044 191.31088825975291 H 0.0 **** 0.06
15446 C 132.5488517550314 183.88382524165223 158.0413458582908 C 0.0 **** -0.24
15447 H 132.56967890162758 184.71003401394296 158.75051201293968 H 0.0 **** 0.06
15448 H 133.5098952356167 183.81734683980028 157.53149843028018 H 0.0 **** 0.06
15449 H 131.75940561298262 184.05368091792934 157.30841871785532 H 0.0 **** 0.06
15450 H 132.3547506487681 182.9526681549358 158.57410527154678 H 0.0 **** 0.06
15451 C 307.3880484020705 95.41951610043594 195.19155137672192 C 0.0 **** -0.24
15452 H 308.3511952718643 95.78417154137048 194.83506594256585 H 0.0 **** 0.06
15453 H 306.6761535177151 96.24458467675373 195.22002713882898 H 0.0 **** 0.06
15454 H 307.5035564844919 95.00519224688708 196.19319002316342 H 0.0 **** 0.06
15455 H 307.0208307644235 94.64543232281784 194.51768205555908 H 0.0 **** 0.06
15456 C 197.763421477157 25.364245010889704 135.46385743982358 C 0.0 **** -0.24
15457 H 198.3328325067189 26.292623946284152 135.42931792478004 H 0.0 **** 0.06
15458 H 198.0557072615606 24.79229120042004 136.34541754333702 H 0.0 **** 0.06
15459 H 197.96841748338022 24.779439377098782 134.56643704567557 H 0.0 **** 0.06
15460 H 196.69891771033065 25.592204832299046 135.5140809220635 H 0.0 **** 0.06
15461 C 148.98481429262756 273.2742029440436 167.42955285274633 C 0.0 **** -0.24
15462 H 148.1971287827521 272.9282944620152 166.7603972591143 H 0.0 **** 0.06
15463 H 149.90697279545407 273.41000832413863 166.86519929264904 H 0.0 **** 0.06
15464 H 149.14379416490135 272.53604250827186 168.21544719665428 H 0.0 **** 0.06
15465 H 148.6899393979511 274.2237378315134 167.87776892792175 H 0.0 **** 0.06
15466 C 146.0810719515747 80.38844916441408 68.76730336992028 C 0.0 **** -0.24
15467 H 145.58933125989262 80.41956867198701 67.7956321225223 H 0.0 **** 0.06
15468 H 147.11930594899928 80.08277369907793 68.64026391250445 H 0.0 **** 0.06
15469 H 145.5675625217124 79.67399112774189 69.41135626605421 H 0.0 **** 0.06
15470 H 146.04639701329992 81.37843137169799 69.22305794401353 H 0.0 **** 0.06
15471 C 218.67097284293504 283.4074555075956 105.70055856809336 C 0.0 **** -0.24
15472 H 218.34548965804885 282.4094843784542 105.9932865464701 H 0.0 **** 0.06
15473 H 218.87129084815408 283.4242568632064 104.62931360983038 H 0.0 **** 0.06
15474 H 219.57877498674418 283.6671216566784 106.24523104683078 H 0.0 **** 0.06
15475 H 217.88733704985185 284.12854332151915 105.93575564303424 H 0.0 **** 0.06
15476 C 79.78804097688877 257.55473156656166 247.34697583993108 C 0.0 **** -0.24
15477 H 79.08443256744826 256.891049413084 246.84411546504148 H 0.0 **** 0.06
15478 H 80.75436776962783 257.0583312716276 247.43729542760502 H 0.0 **** 0.06
15479 H 79.41027232231332 257.79959941239844 248.3389163245069 H 0.0 **** 0.06
15480 H 79.90261038178883 258.46981424500234 246.7659174150287 H 0.0 **** 0.06
15481 C 182.31930965560736 264.3903417030628 297.84469827668704 C 0.0 **** -0.24
15482 H 182.7769860040176 264.3734463170047 298.8335517813298 H 0.0 **** 0.06
15483 H 182.6522360836138 265.2773393390126 297.3049042963039 H 0.0 **** 0.06
15484 H 181.23389059990984 264.414094150648 297.94682882710174 H 0.0 **** 0.06
15485 H 182.61267588792128 263.4973896871766 297.2932208986051 H 0.0 **** 0.06
15486 C 281.7487332879414 136.93330515487722 278.6228278515687 C 0.0 **** -0.24
15487 H 282.44453412069083 136.23617127523522 279.08985344572204 H 0.0 **** 0.06
15488 H 280.9002066426298 136.38232712927817 278.2180006111946 H 0.0 **** 0.06
15489 H 282.2548451380466 137.46694285578943 277.8180049196186 H 0.0 **** 0.06
15490 H 281.3972612809547 137.64793021906766 279.36697353307204 H 0.0 **** 0.06
15491 C 101.31561795420868 112.55532735701232 123.30858699116834 C 0.0 **** -0.24
15492 H 101.595986622847 113.59543653769487 123.14372144094793 H 0.0 **** 0.06
15493 H 100.56059865011741 112.50293725480324 124.09300555139083 H 0.0 **** 0.06
15494 H 102.19386681210031 111.9851134811314 123.61158275032491 H 0.0 **** 0.06
15495 H 100.91115106392652 112.13743761449615 122.38635055152741 H 0.0 **** 0.06
15496 C 145.1390167370481 96.63427880631258 104.83953052727617 C 0.0 **** -0.24
15497 H 144.67424340519685 96.1098003906636 105.67341570165408 H 0.0 **** 0.06
15498 H 146.1268558881943 96.98756855468159 105.13736692650042 H 0.0 **** 0.06
15499 H 144.51930120025315 97.48488097145625 104.55486236551079 H 0.0 **** 0.06
15500 H 145.23565851441052 95.95619456946315 103.99199440318927 H 0.0 **** 0.06
15501 C 78.82730995220447 165.3466467478023 60.22118704798521 C 0.0 **** -0.24
15502 H 79.37646075116379 164.4228110809496 60.03861812455855 H 0.0 **** 0.06
15503 H 78.35980220009114 165.679861493756 59.294462285103066 H 0.0 **** 0.06
15504 H 79.51480112677879 166.11264115190306 60.579337583002115 H 0.0 **** 0.06
15505 H 78.05760378902008 165.16843158342118 60.9731033559371 H 0.0 **** 0.06
15506 C 249.64436260905126 55.67989008451377 289.0033121768554 C 0.0 **** -0.24
15507 H 248.6591574143211 56.08119272934903 288.76399175300696 H 0.0 **** 0.06
15508 H 249.86786294746338 54.84524216821768 288.33955634806284 H 0.0 **** 0.06
15509 H 249.65432506772356 55.33624132999 290.0373883975438 H 0.0 **** 0.06
15510 H 250.3946613228639 56.46071438951685 288.87280699783463 H 0.0 **** 0.06
15511 C 275.4542381634105 70.63526814353708 96.45921192294244 C 0.0 **** -0.24
15512 H 275.84351111484915 71.44549700067432 95.84284992103215 H 0.0 **** 0.06
15513 H 275.87445316241735 69.68745925044121 96.12173005686046 H 0.0 **** 0.06
15514 H 274.3678354669014 70.60222350906699 96.37310973872698 H 0.0 **** 0.06
15515 H 275.73077605457746 70.80526964938736 97.49984328588113 H 0.0 **** 0.06
15516 C 27.672773372039387 207.90788361631581 89.32265456594479 C 0.0 **** -0.24
15517 H 27.300387660095765 207.0478168540539 88.76503157371928 H 0.0 **** 0.06
15518 H 28.763331978157794 207.9040042471294 89.30922946220932 H 0.0 **** 0.06
15519 H 27.32115934265056 207.85120681472733 90.35266168383043 H 0.0 **** 0.06
15520 H 27.305967521663717 208.82486806384452 88.862858594579 H 0.0 **** 0.06
15521 C 15.974921493840654 265.4748624747739 0.665383901809605 C 0.0 **** -0.24
15522 H 15.479945633510681 266.131929532013 -0.050121606591574164 H 0.0 **** 0.06
15523 H 15.536574999396564 265.6178339350096 1.6523316490522575 H 0.0 **** 0.06
15524 H 17.03776070997708 265.7133162312916 0.701048380517932 H 0.0 **** 0.06
15525 H 15.84510250408698 264.4385419541267 0.3557887599845344 H 0.0 **** 0.06
15526 C 42.60419616007738 262.17571595507104 147.05519803864735 C 0.0 **** -0.24
15527 H 43.23885996271315 261.3342403499451 147.33367607191977 H 0.0 **** 0.06
15528 H 43.07525551020211 262.73253746830335 146.2453590178662 H 0.0 **** 0.06
15529 H 42.470365660647985 262.83018822843655 147.9168173241475 H 0.0 **** 0.06
15530 H 41.63359496842122 261.8042680280326 146.72576198067276 H 0.0 **** 0.06
15531 C 47.53894706536326 176.37369890535876 200.05926109532186 C 0.0 **** -0.24
15532 H 48.08456802529395 176.25384504869135 200.99586089053787 H 0.0 **** 0.06
15533 H 47.40117874601026 175.39749562404438 199.59194599420255 H 0.0 **** 0.06
15534 H 48.10506911481957 177.0206560081353 199.38884504238 H 0.0 **** 0.06
15535 H 46.56586419234469 176.82051831949718 200.26045125023296 H 0.0 **** 0.06
15536 C 168.32830921139362 62.04213585823598 35.20572029208239 C 0.0 **** -0.24
15537 H 167.25039320050956 62.19857220868985 35.25108650382202 H 0.0 **** 0.06
15538 H 168.79343086329726 62.46439547933113 36.09650534552148 H 0.0 **** 0.06
15539 H 168.72973359469466 62.53275214202992 34.319019961405246 H 0.0 **** 0.06
15540 H 168.53864186645416 60.97463725066265 35.15706601950117 H 0.0 **** 0.06
15541 C 135.8473136607604 214.60335148258287 311.53752890698553 C 0.0 **** -0.24
15542 H 135.69516602163515 215.5024193029948 310.9399885300581 H 0.0 **** 0.06
15543 H 134.88351716098953 214.2319969623273 311.88769812781777 H 0.0 **** 0.06
15544 H 136.47971770442916 214.83849356523905 312.3929584315118 H 0.0 **** 0.06
15545 H 136.3316643708941 213.83956437083134 310.9273551634873 H 0.0 **** 0.06
15546 C 149.17239113360455 149.04324961428927 86.22280162656972 C 0.0 **** -0.24
15547 H 150.19387172609044 149.1177713600162 86.59590785661499 H 0.0 **** 0.06
15548 H 149.188982563349 148.71788269548512 85.18204255357381 H 0.0 **** 0.06
15549 H 148.68873786213723 150.0183281836571 86.29137751408717 H 0.0 **** 0.06
15550 H 148.6182803231315 148.32002872141172 86.8209404889252 H 0.0 **** 0.06
15551 C 252.37358889594276 263.5228529533931 261.0563851004462 C 0.0 **** -0.24
15552 H 251.51201820860706 263.2199589650024 261.65052946653213 H 0.0 **** 0.06
15553 H 252.45180384604402 264.61099567679923 261.05843311390396 H 0.0 **** 0.06
15554 H 252.2515025476683 263.1690024705673 260.03296382520017 H 0.0 **** 0.06
15555 H 253.2788324236726 263.09277306736635 261.4840856893485 H 0.0 **** 0.06
15556 C 89.96467776188106 156.4064459030086 259.7030331040775 C 0.0 **** -0.24
15557 H 89.98877759472433 155.31986342069047 259.62859486674057 H 0.0 **** 0.06
15558 H 89.94137755353196 156.8392281464332 258.7027091656656 H 0.0 **** 0.06
15559 H 90.85341069850512 156.75532821474394 260.2299356138101 H 0.0 **** 0.06
15560 H 89.07347396121145 156.7130634033761 260.2514570716853 H 0.0 **** 0.06
15561 C 213.44849166775288 311.0637261622628 281.25742384320284 C 0.0 **** -0.24
15562 H 212.69059865225228 311.17749553008053 280.4823257474543 H 0.0 **** 0.06
15563 H 213.02714167984078 311.34633891141357 282.2224174048231 H 0.0 **** 0.06
15564 H 214.2988659922974 311.70719735993384 281.0304091329333 H 0.0 **** 0.06
15565 H 213.77698997350805 310.0252377033537 281.29454435196993 H 0.0 **** 0.06
15566 C 2.684741770335961 290.8353574924516 49.04743406224148 C 0.0 **** -0.24
15567 H 2.7905544298238283 291.8969080925266 49.27082017191606 H 0.0 **** 0.06
15568 H 3.6723433375253194 290.3904858734872 48.92441480190999 H 0.0 **** 0.06
15569 H 2.1139794175442717 290.7143501414692 48.126689848061915 H 0.0 **** 0.06
15570 H 2.162592821251735 290.3410899093072 49.866478859359944 H 0.0 **** 0.06
15571 C 12.922283404800297 245.8852510048876 242.93007739145855 C 0.0 **** -0.24
15572 H 13.514170899291699 246.5962878006946 242.3536069070845 H 0.0 **** 0.06
15573 H 13.582755022154828 245.14701819885207 243.38508938838973 H 0.0 **** 0.06
15574 H 12.214153495207952 245.3837493190672 242.2710330556593 H 0.0 **** 0.06
15575 H 12.377568805086156 246.41672579872625 243.7116059620859 H 0.0 **** 0.06
15576 C 12.05180597605846 230.8904418328346 87.91111689392358 C 0.0 **** -0.24
15577 H 12.201622273389205 230.3400955715116 88.83913220231037 H 0.0 **** 0.06
15578 H 12.374030161515464 230.27745453340552 87.06915935540906 H 0.0 **** 0.06
15579 H 12.635007777181215 231.81085642807835 87.93536521238852 H 0.0 **** 0.06
15580 H 10.995233333477927 231.13318524553557 87.79971566151829 H 0.0 **** 0.06
15581 C 296.31407038741503 162.70081168673215 223.38065416443064 C 0.0 **** -0.24
15582 H 295.9874917606925 161.73757974673612 223.77268857687636 H 0.0 **** 0.06
15583 H 297.3621969626835 162.63895728144792 223.09049548735598 H 0.0 **** 0.06
15584 H 296.19313188406016 163.46404104747478 224.14868161598088 H 0.0 **** 0.06
15585 H 295.7097864528291 162.9621632308216 222.51124364441728 H 0.0 **** 0.06
15586 C 182.62962400962817 285.9578221316747 55.095828433588906 C 0.0 **** -0.24
15587 H 182.4053102958514 286.8174833277707 55.72684058324501 H 0.0 **** 0.06
15588 H 181.96987170272882 285.9614091122779 54.229251046002275 H 0.0 **** 0.06
15589 H 182.4786995519845 285.04091780183523 55.66503279510516 H 0.0 **** 0.06
15590 H 183.66693474388143 286.0131880532266 54.76411106920182 H 0.0 **** 0.06
15591 C 289.009471234804 54.694174752052334 260.5238199632157 C 0.0 **** -0.24
15592 H 288.60381651333756 54.44395570849184 259.54396179824346 H 0.0 **** 0.06
15593 H 289.9661056946868 54.18959045280073 260.66126648919555 H 0.0 **** 0.06
15594 H 288.3138017468226 54.371054423513385 261.2980496225098 H 0.0 **** 0.06
15595 H 289.1546616513216 55.772960376674405 260.59208177814355 H 0.0 **** 0.06
15596 C 163.81478768901695 13.92326904031529 187.83457162413578 C 0.0 **** -0.24
15597 H 163.1977393092855 13.031328867784737 187.94483665607424 H 0.0 **** 0.06
15598 H 164.36992446825553 13.867192046207776 186.89761224293665 H 0.0 **** 0.06
15599 H 164.51374970489974 13.98763708025183 188.66807279548203 H 0.0 **** 0.06
15600 H 163.17578245172422 14.80730745690812 187.82634102126423 H 0.0 **** 0.06
15601 C 305.5080005602813 97.74591843900296 314.0805905261288 C 0.0 **** -0.24
15602 H 305.7936147158124 97.45980897606114 315.09323324832405 H 0.0 **** 0.06
15603 H 305.88775345487863 97.00642497357705 313.37434374812847 H 0.0 **** 0.06
15604 H 305.93043570016175 98.72324995997954 313.8469519138458 H 0.0 **** 0.06
15605 H 304.4222515850877 97.79295382206436 314.0083397312794 H 0.0 **** 0.06
15606 C 263.91981805907443 193.3971475584396 50.983021431951755 C 0.0 **** -0.24
15607 H 264.46080109148863 192.64453040737465 51.5579154563076 H 0.0 **** 0.06
15608 H 264.31021780489317 194.38649359566352 51.222445342645585 H 0.0 **** 0.06
15609 H 262.86034538381756 193.3529937364748 51.2356089235588 H 0.0 **** 0.06
15610 H 264.04883720278275 193.20229968803886 49.91834555728562 H 0.0 **** 0.06
15611 C 145.92544133826613 265.718389372559 117.6129494831429 C 0.0 **** -0.24
15612 H 145.4632652147201 264.73140263250156 117.65609762922918 H 0.0 **** 0.06
15613 H 146.99186886968423 265.61104991454977 117.4118502141034 H 0.0 **** 0.06
15614 H 145.78397169960726 266.22688881591523 118.56586500970877 H 0.0 **** 0.06
15615 H 145.46188557286902 266.30135412989216 116.81688510409899 H 0.0 **** 0.06
15616 C 296.14502664646324 308.46559321729524 24.587262339567218 C 0.0 **** -0.24
15617 H 296.90350157618957 307.68932290424254 24.483024463120216 H 0.0 **** 0.06
15618 H 295.77644392808554 308.4764832340283 25.61365921374113 H 0.0 **** 0.06
15619 H 295.31930900482826 308.2610283208316 23.906581853343823 H 0.0 **** 0.06
15620 H 296.58166960984533 309.4344689389751 24.348645281580076 H 0.0 **** 0.06
15621 C 273.65781562769297 51.36849386897859 190.82234534124183 C 0.0 **** -0.24
15622 H 274.1735972015925 51.371698828818325 191.78345171084504 H 0.0 **** 0.06
15623 H 272.60618618664 51.612980312735345 190.97426061534384 H 0.0 **** 0.06
15624 H 273.7396290368298 50.37999930384444 190.37039688113697 H 0.0 **** 0.06
15625 H 274.11233809454876 52.10801794830073 190.1642930590951 H 0.0 **** 0.06
15626 C 159.78042217569043 314.2808185530323 281.4857764723298 C 0.0 **** -0.24
15627 H 159.72038050575037 315.3611389914895 281.34801905822013 H 0.0 **** 0.06
15628 H 158.78152991568868 313.88166848883213 281.66337104304745 H 0.0 **** 0.06
15629 H 160.41748438987742 314.0588822833985 282.34192796441744 H 0.0 **** 0.06
15630 H 160.20155229899768 313.8235214491816 280.59062334213417 H 0.0 **** 0.06
15631 C 293.9761330281339 135.51695442985493 172.48374534592557 C 0.0 **** -0.24
15632 H 294.82363543432507 136.08064450328743 172.09367929663784 H 0.0 **** 0.06
15633 H 293.55063556077243 136.04419362443014 173.3374678335486 H 0.0 **** 0.06
15634 H 294.3112986708361 134.5278837756385 172.79761568126196 H 0.0 **** 0.06
15635 H 293.22052633807266 135.41449822615627 171.70443051275015 H 0.0 **** 0.06
15636 C 306.19098741965706 262.8971962340013 298.390404300436 C 0.0 **** -0.24
15637 H 307.1959660709776 263.1802950703513 298.0804876979266 H 0.0 **** 0.06
15638 H 305.46099549073494 263.5069521629739 297.8574372811721 H 0.0 **** 0.06
15639 H 306.08399370763124 263.05661631407753 299.463092946311 H 0.0 **** 0.06
15640 H 306.02202035202936 261.84479807724307 298.1604095099643 H 0.0 **** 0.06
15641 C 285.34728933735096 170.24445991654989 211.83371296683515 C 0.0 **** -0.24
15642 H 284.7230977725325 169.35197548747868 211.78705693616934 H 0.0 **** 0.06
15643 H 284.71838681420894 171.1190205247209 211.99855139214424 H 0.0 **** 0.06
15644 H 285.8905588289328 170.3580347882483 210.89586524160944 H 0.0 **** 0.06
15645 H 286.0570663389448 170.1474212251428 212.65539627048366 H 0.0 **** 0.06
15646 C 113.92693289147303 275.1508969396274 202.88725966343907 C 0.0 **** -0.24
15647 H 113.14938449222663 274.6663004904417 203.47733857001225 H 0.0 **** 0.06
15648 H 114.62608897309048 275.6558670271554 203.55371396315394 H 0.0 **** 0.06
15649 H 113.47312578375062 275.88060921073634 202.2167445928368 H 0.0 **** 0.06
15650 H 114.45897028970654 274.40059450586614 202.30220426808143 H 0.0 **** 0.06
15651 C 104.25637151399363 283.4197612222197 176.7832278762441 C 0.0 **** -0.24
15652 H 104.92785371211272 283.5924228760069 175.9421197017885 H 0.0 **** 0.06
15653 H 103.38632026600624 284.07196135018626 176.6923368414134 H 0.0 **** 0.06
15654 H 104.77795613330807 283.6372835976915 177.71446997373647 H 0.0 **** 0.06
15655 H 103.93187858457617 282.37984775686596 176.78159476791643 H 0.0 **** 0.06
15656 C 166.43843330305327 197.8431369670518 20.84590683872301 C 0.0 **** -0.24
15657 H 166.0439988302865 198.2696880744349 21.76708811317718 H 0.0 **** 0.06
15658 H 167.10643693237978 198.56127360840014 20.369795225881617 H 0.0 **** 0.06
15659 H 165.6145400968182 197.61147944897976 20.17055127971082 H 0.0 **** 0.06
15660 H 166.98853626641306 196.93016048105926 21.073968268800513 H 0.0 **** 0.06
15661 C 312.8157457750161 112.04198166986217 47.54921179135144 C 0.0 **** -0.24
15662 H 312.6388439020347 111.17593597316755 48.18667938007755 H 0.0 **** 0.06
15663 H 312.8860371963374 112.93849200570233 48.16589541175179 H 0.0 **** 0.06
15664 H 311.99219783655724 112.14876435764285 46.844002180368875 H 0.0 **** 0.06
15665 H 313.7485816983984 111.90441997823424 47.00112577866898 H 0.0 **** 0.06
15666 C 51.99951069553214 41.55362400563365 140.97035335642786 C 0.0 **** -0.24
15667 H 52.135945257258555 40.594604780140685 140.471326220792 H 0.0 **** 0.06
15668 H 51.90463040145184 41.39383858343359 142.04443747742798 H 0.0 **** 0.06
15669 H 51.09653574391888 42.03405273644057 140.59199396795034 H 0.0 **** 0.06
15670 H 52.86015891158044 42.191826426224054 140.77076210564408 H 0.0 **** 0.06
15671 C 82.41088935470518 109.7370941941686 171.6545652800986 C 0.0 **** -0.24
15672 H 81.96290381023681 110.20307482472006 170.7765092699081 H 0.0 **** 0.06
15673 H 83.49324376050262 109.70231355043356 171.53299392569227 H 0.0 **** 0.06
15674 H 82.0241040785873 108.72492756131504 171.765223309511 H 0.0 **** 0.06
15675 H 82.1627989788841 110.32084627596885 172.54108827640044 H 0.0 **** 0.06
15676 C 13.715676021932254 1.494965056556353 280.53147057205115 C 0.0 **** -0.24
15677 H 13.166109889589322 0.610012495462172 280.2083863922433 H 0.0 **** 0.06
15678 H 14.782861643488559 1.3369219469633435 280.37519973213045 H 0.0 **** 0.06
15679 H 13.525881031544628 1.6742986334893004 281.58997172085685 H 0.0 **** 0.06
15680 H 13.386294311470763 2.357441967127812 279.9519115861504 H 0.0 **** 0.06
15681 C 115.05407467311215 305.9762902177379 267.1159262671185 C 0.0 **** -0.24
15682 H 114.43764852598278 306.3601958226507 267.92839573654567 H 0.0 **** 0.06
15683 H 115.39186422175612 304.9689822897418 267.36061445931443 H 0.0 **** 0.06
15684 H 115.91831890503434 306.62615740131446 266.976822336691 H 0.0 **** 0.06
15685 H 114.46766724179975 305.9508298094461 266.1972797390444 H 0.0 **** 0.06
15686 C 60.468542032057144 7.868660217778228 208.86400178846054 C 0.0 **** -0.24
15687 H 61.1276681891631 8.663842662117048 209.21427588864896 H 0.0 **** 0.06
15688 H 59.45770259420814 8.047547365535422 209.23250467298402 H 0.0 **** 0.06
15689 H 60.82643968267635 6.909377357802015 209.2356804248919 H 0.0 **** 0.06
15690 H 60.461220643166996 7.857245055834142 207.77470364965131 H 0.0 **** 0.06
15691 C 154.55845056717038 174.47887758977828 144.13119023089303 C 0.0 **** -0.24
15692 H 155.41196958009328 174.95215776258755 144.6160340409125 H 0.0 **** 0.06
15693 H 153.90740666598901 175.24609792472944 143.7116951201594 H 0.0 **** 0.06
15694 H 154.0028580043907 173.89279619810105 144.86429381379762 H 0.0 **** 0.06
15695 H 154.91005371437421 173.82370066773984 143.3345078755511 H 0.0 **** 0.06
15696 C 277.6212359811685 36.14509919481918 209.32876946878554 C 0.0 **** -0.24
15697 H 276.98972013866813 35.731962562177785 208.5421614253293 H 0.0 **** 0.06
15698 H 277.11432133167693 36.04865444612446 210.28895450254083 H 0.0 **** 0.06
15699 H 277.81501322580107 37.19790639568333 209.12343869354322 H 0.0 **** 0.06
15700 H 278.56545069799637 35.60033641329909 209.3589594566439 H 0.0 **** 0.06
15701 C 297.03909148120846 15.305589063037317 44.939784455578035 C 0.0 **** -0.24
15702 H 296.92166175732143 16.204353049984533 45.547232327184275 H 0.0 **** 0.06
15703 H 296.7690719350663 14.430843145474256 45.5322913155301 H 0.0 **** 0.06
15704 H 298.0761248544561 15.220228688071145 44.615023405710275 H 0.0 **** 0.06
15705 H 296.38834580906064 15.370154808281214 44.06763384617233 H 0.0 **** 0.06
15706 C 108.05940418955993 218.1408820592158 98.32196580544954 C 0.0 **** -0.24
15707 H 107.77632436623503 218.96499268996132 98.97638602931937 H 0.0 **** 0.06
15708 H 109.11627182979794 217.914643695905 98.46097062947274 H 0.0 **** 0.06
15709 H 107.88075321810231 218.4230496053318 97.28461164501653 H 0.0 **** 0.06
15710 H 107.46328555419177 217.26165115657824 98.56773387808067 H 0.0 **** 0.06
15711 C 133.3528693472875 292.1798599257291 273.01954669495893 C 0.0 **** -0.24
15712 H 134.05181091224702 291.70126937886926 273.7057850856957 H 0.0 **** 0.06
15713 H 133.44991549804905 291.73113610661613 272.0309116111033 H 0.0 **** 0.06
15714 H 133.57673532164506 293.2452542546539 272.95850324333907 H 0.0 **** 0.06
15715 H 132.3350622050174 292.04284972548703 273.38380370984044 H 0.0 **** 0.06
15716 C 14.828545532292082 278.87284869023443 200.0715047208521 C 0.0 **** -0.24
15717 H 13.817858034104106 278.6042818508816 200.37874075932677 H 0.0 **** 0.06
15718 H 14.781784141162774 279.51938751133974 199.19468359932796 H 0.0 **** 0.06
15719 H 15.385222443116206 277.9679383999404 199.82673434693652 H 0.0 **** 0.06
15720 H 15.3284209475554 279.39862273242375 200.88417474589914 H 0.0 **** 0.06
15721 C 150.43230029738248 154.57289228677735 120.16359884310984 C 0.0 **** -0.24
15722 H 150.51746638125223 155.11350485721982 119.22093499162054 H 0.0 **** 0.06
15723 H 150.90607425166155 155.14933224224995 120.95868284592288 H 0.0 **** 0.06
15724 H 150.92552357941787 153.60492530719944 120.07290114724367 H 0.0 **** 0.06
15725 H 149.37889414940764 154.4219481531652 120.4018439078275 H 0.0 **** 0.06
15726 C 182.61787757861924 258.0625636206387 298.60390055946834 C 0.0 **** -0.24
15727 H 183.00751903887829 258.67618077725086 297.7919394364085 H 0.0 **** 0.06
15728 H 181.57659225029568 258.326075215993 298.79153280017334 H 0.0 **** 0.06
15729 H 183.20506923392378 258.23683638852634 299.5058264514655 H 0.0 **** 0.06
15730 H 182.6817268641667 257.01036499295463 298.3263367520341 H 0.0 **** 0.06
15731 C 146.6208200561341 167.84201065185277 265.75477032222057 C 0.0 **** -0.24
15732 H 146.41648475604939 166.79445647144144 265.9745035037029 H 0.0 **** 0.06
15733 H 145.7671233473801 168.27757296258733 265.2334242156544 H 0.0 **** 0.06
15734 H 147.50748106847095 167.91476820396542 265.1251514400717 H 0.0 **** 0.06
15735 H 146.79156801393924 168.38169204999787 266.6866439598352 H 0.0 **** 0.06
15736 C 139.5243923026725 242.9939966047063 178.9557994896556 C 0.0 **** -0.24
15737 H 139.77688512565305 242.70518447187135 177.93557879009114 H 0.0 **** 0.06
15738 H 139.52146456416813 244.08162757972434 179.0349426856505 H 0.0 **** 0.06
15739 H 140.2623652146421 242.58269005818806 179.64395154585753 H 0.0 **** 0.06
15740 H 138.536806387133 242.60871326646986 179.20889662003844 H 0.0 **** 0.06
15741 C 175.6258574325393 70.50360691575767 234.35752764135933 C 0.0 **** -0.24
15742 H 175.3169973341051 70.63509153134916 233.3208326127596 H 0.0 **** 0.06
15743 H 174.95559577955606 71.06348070425369 235.0102496421963 H 0.0 **** 0.06
15744 H 176.6450747619079 70.86996272350987 234.48201783958845 H 0.0 **** 0.06
15745 H 175.58629934302382 69.44513364150563 234.6166431359796 H 0.0 **** 0.06
15746 C 137.52783139137568 82.64641050653168 208.078145094035 C 0.0 **** -0.24
15747 H 137.68209588325672 81.59741609982578 208.33438045269003 H 0.0 **** 0.06
15748 H 138.00981018629193 82.85995712698923 207.12383191985612 H 0.0 **** 0.06
15749 H 137.96089732895297 83.2767544182907 208.85414947023185 H 0.0 **** 0.06
15750 H 136.45969465681569 82.84749210956326 207.99901575095777 H 0.0 **** 0.06
15751 C 55.57763231211686 302.79433533627383 155.04484781970717 C 0.0 **** -0.24
15752 H 54.836056197678374 303.27722222911507 154.40856214127263 H 0.0 **** 0.06
15753 H 56.33441678237972 302.3174056493347 154.4225603570486 H 0.0 **** 0.06
15754 H 55.09001776998343 302.042253820747 155.665362770159 H 0.0 **** 0.06
15755 H 56.050652554196745 303.5409284469472 155.683540963567 H 0.0 **** 0.06
15756 C 248.01817208742534 80.96267592786998 133.08934022476222 C 0.0 **** -0.24
15757 H 247.6869178858963 80.24205310065395 133.83811772974892 H 0.0 **** 0.06
15758 H 248.7096293539366 81.6695907358255 133.54709741977422 H 0.0 **** 0.06
15759 H 247.15577595319962 81.49980544380679 132.69651948485298 H 0.0 **** 0.06
15760 H 248.52025549795738 80.43735346870142 132.2767985867636 H 0.0 **** 0.06
15761 C 234.68221755478686 217.22008837802352 206.05049515718775 C 0.0 **** -0.24
15762 H 234.2701317417739 216.9588532585734 207.02559763823115 H 0.0 **** 0.06
15763 H 235.50650330000036 216.54723253830673 205.81292331230884 H 0.0 **** 0.06
15764 H 235.04715289237072 218.24780641059255 206.07399415940517 H 0.0 **** 0.06
15765 H 233.90614083234877 217.1274482149938 205.2914417557477 H 0.0 **** 0.06
15766 C 214.07615418132443 299.0055839908508 180.48480116551258 C 0.0 **** -0.24
15767 H 214.2585256366095 299.7479439392396 181.26239599147237 H 0.0 **** 0.06
15768 H 213.2540237213418 298.35704933791254 180.78866571415443 H 0.0 **** 0.06
15769 H 214.97542904401124 298.4081207748019 180.33570798734485 H 0.0 **** 0.06
15770 H 213.81637088794895 299.51081962247883 179.55427231085378 H 0.0 **** 0.06
15771 C 156.84412339272995 83.99875552121776 39.20805293050168 C 0.0 **** -0.24
15772 H 156.01401953330588 84.02703831281505 39.91390207598383 H 0.0 **** 0.06
15773 H 156.75140564496417 84.82797709354921 38.50616522114714 H 0.0 **** 0.06
15774 H 156.8237657380896 83.05565835886185 38.660999310870494 H 0.0 **** 0.06
15775 H 157.78497552862956 84.0844992893312 39.750395634136254 H 0.0 **** 0.06
15776 C 265.3622233579066 267.4315631678171 112.22998698006234 C 0.0 **** -0.24
15777 H 264.2766487599766 267.3500225425019 112.182550017663 H 0.0 **** 0.06
15778 H 265.63816651905273 268.44201970339145 112.5326969313623 H 0.0 **** 0.06
15779 H 265.78581905652356 267.21878115530984 111.24770298044078 H 0.0 **** 0.06
15780 H 265.749024375161 266.7160394386024 112.95475253553053 H 0.0 **** 0.06
15781 C 126.08307876103802 82.58636347376262 145.58120792984022 C 0.0 **** -0.24
15782 H 125.72605652036842 82.65033788326224 146.60907306903226 H 0.0 **** 0.06
15783 H 125.32843482459992 82.09506250451838 144.96536278218926 H 0.0 **** 0.06
15784 H 127.00711573202369 82.00891414415264 145.55336376047057 H 0.0 **** 0.06
15785 H 126.26878679150789 83.5891056077312 145.1981151421418 H 0.0 **** 0.06
15786 C 228.75399482368184 2.036648368879341 9.449593376775496 C 0.0 **** -0.24
15787 H 229.16571786854013 2.937671000764297 8.995481387579474 H 0.0 **** 0.06
15788 H 229.1832553873721 1.9022036534446585 10.443666486655061 H 0.0 **** 0.06
15789 H 228.99599998734374 1.174006993909785 8.829417026501773 H 0.0 **** 0.06
15790 H 227.67204750047944 2.1335093309882893 9.531619516220701 H 0.0 **** 0.06
15791 C 135.53379633236668 285.74819064097187 46.03160465605177 C 0.0 **** -0.24
15792 H 135.23560305029875 284.7455920352738 46.33736134053703 H 0.0 **** 0.06
15793 H 136.1588681627086 286.1923233000823 46.80611013487501 H 0.0 **** 0.06
15794 H 134.64608459166112 286.36248576603754 45.88367321603056 H 0.0 **** 0.06
15795 H 136.0964983728835 285.69124314598 45.09876718082941 H 0.0 **** 0.06
15796 C 13.014487289135133 21.37312025047521 293.9073761719604 C 0.0 **** -0.24
15797 H 13.897142490516458 21.053359170370243 293.3527654970281 H 0.0 **** 0.06
15798 H 13.314230191851323 22.05278091019943 294.70517434855265 H 0.0 **** 0.06
15799 H 12.521175234953304 20.50215385076882 294.33869403287724 H 0.0 **** 0.06
15800 H 12.327577939705947 21.88380028255665 293.23392551173407 H 0.0 **** 0.06
15801 C 314.2755446855175 12.74605045110809 207.25426877409623 C 0.0 **** -0.24
15802 H 315.24021191055897 12.248560174285501 207.35669885488602 H 0.0 **** 0.06
15803 H 313.99483877660526 12.780387965319164 206.2008925429244 H 0.0 **** 0.06
15804 H 314.3464464206007 13.760174568266848 207.64495990523204 H 0.0 **** 0.06
15805 H 313.5215787982296 12.19247398889405 207.81388461655882 H 0.0 **** 0.06
15806 C 256.2234234127704 260.5623585253845 6.953177539203168 C 0.0 **** -0.24
15807 H 257.24356677682397 260.47132818177505 7.326330783596106 H 0.0 **** 0.06
15808 H 255.88262221166082 259.5932032839708 6.589018221143448 H 0.0 **** 0.06
15809 H 256.1980543088878 261.28656808451893 6.137768266762976 H 0.0 **** 0.06
15810 H 255.57091516840129 260.89872634901167 7.758288726400679 H 0.0 **** 0.06
15811 C 280.3372423619603 134.82016883500629 55.1856250987247 C 0.0 **** -0.24
15812 H 279.84416750038974 135.5307586228988 54.52228454962764 H 0.0 **** 0.06
15813 H 279.5932307780059 134.34173000621976 55.822334921865604 H 0.0 **** 0.06
15814 H 281.0634657358063 135.3450558948613 55.805229432010634 H 0.0 **** 0.06
15815 H 280.8479359534824 134.06268437764356 54.59024899347662 H 0.0 **** 0.06
15816 C 297.452911793014 120.06201405417806 34.73929737484451 C 0.0 **** -0.24
15817 H 298.0638285823582 120.38861579460635 33.8976262214419 H 0.0 **** 0.06
15818 H 297.2875933425464 118.98669518351431 34.671640248148236 H 0.0 **** 0.06
15819 H 296.4940751563601 120.5798005104698 34.71505197045545 H 0.0 **** 0.06
15820 H 297.96615009079113 120.29294472812174 35.67287105933238 H 0.0 **** 0.06
15821 C 104.37302996250372 113.98310820090504 42.26805041595239 C 0.0 **** -0.24
15822 H 105.06401228271142 113.33299251804814 42.80402838075062 H 0.0 **** 0.06
15823 H 104.62405897440561 113.9851131606789 41.206749435546214 H 0.0 **** 0.06
15824 H 104.4485105784274 114.996949147338 42.66208031986173 H 0.0 **** 0.06
15825 H 103.35433488756107 113.61710427487427 42.40003460035928 H 0.0 **** 0.06
15826 C 266.9438527410811 12.012804986926497 50.76217567201894 C 0.0 **** -0.24
15827 H 267.69728052245176 12.652632661825706 51.21950757119157 H 0.0 **** 0.06
15828 H 266.0772583417569 11.945625346309427 51.41992972411896 H 0.0 **** 0.06
15829 H 267.35849303529636 11.017737663823198 50.603718123264 H 0.0 **** 0.06
15830 H 266.6399654892382 12.436143878039331 49.80402115513317 H 0.0 **** 0.06
15831 C 233.69159802714557 248.61536066088985 90.20101089820912 C 0.0 **** -0.24
15832 H 233.73687611518105 249.7032756968498 90.26204469839172 H 0.0 **** 0.06
15833 H 232.71850421671897 248.27304902605204 90.55343894983045 H 0.0 **** 0.06
15834 H 234.4759630604759 248.183959959474 90.82217454419248 H 0.0 **** 0.06
15835 H 233.83419665547376 248.30403203414392 89.16626819268623 H 0.0 **** 0.06
15836 C 113.68441679299079 171.25133970386156 105.84002077378747 C 0.0 **** -0.24
15837 H 114.76064376816032 171.09870859133076 105.9283700637543 H 0.0 **** 0.06
15838 H 113.19170936401318 170.89436654618555 106.7442728973621 H 0.0 **** 0.06
15839 H 113.30891225218966 170.69848419533713 104.97856939419881 H 0.0 **** 0.06
15840 H 113.47870370409618 172.3132008994324 105.7082851583605 H 0.0 **** 0.06
15841 C 104.50067147309335 222.98613652046575 195.5881510418011 C 0.0 **** -0.24
15842 H 104.51600820066807 223.9399213399401 196.11621699978775 H 0.0 **** 0.06
15843 H 105.20777054466424 223.01835223680797 194.75990748121893 H 0.0 **** 0.06
15844 H 103.49727274676596 222.80007498505054 195.2040072471085 H 0.0 **** 0.06
15845 H 104.7800076559511 222.18733375627232 196.27493469724237 H 0.0 **** 0.06
15846 C 173.92846717180743 133.87876505650752 99.15286366368483 C 0.0 **** -0.24
15847 H 174.81881686917848 134.36792143112763 98.75861145445921 H 0.0 **** 0.06
15848 H 173.1526742076041 133.86432232731588 98.38643294900305 H 0.0 **** 0.06
15849 H 173.56888247214465 134.42634237318822 100.02410948230147 H 0.0 **** 0.06
15850 H 174.1734683518714 132.85701871826572 99.44099590257005 H 0.0 **** 0.06
15851 C 110.29357315440134 230.7624011911958 231.1218776918274 C 0.0 **** -0.24
15852 H 111.02085647943494 229.9554414233093 231.02778065664154 H 0.0 **** 0.06
15853 H 109.64555902345683 230.56913587072245 231.97749709179166 H 0.0 **** 0.06
15854 H 109.69306460520662 230.81618456209694 230.21444109564828 H 0.0 **** 0.06
15855 H 110.81707780525028 231.70740892116348 231.26913808651614 H 0.0 **** 0.06
15856 C 281.7818350628055 245.7179016098787 182.06677481367836 C 0.0 **** -0.24
15857 H 282.67003164815685 245.3116859905308 182.5498711215037 H 0.0 **** 0.06
15858 H 280.9804038921059 245.8095124193338 182.7996232881821 H 0.0 **** 0.06
15859 H 281.46716861902905 245.04958311047375 181.26579057002965 H 0.0 **** 0.06
15860 H 282.0110598255184 246.6990290739841 181.65196491346433 H 0.0 **** 0.06
15861 C 222.67721696346345 31.506986795307398 80.06540320764071 C 0.0 **** -0.24
15862 H 222.59216620784315 30.435512207059787 80.24856141510935 H 0.0 **** 0.06
15863 H 222.24975794219446 32.053875206849966 80.90509552923473 H 0.0 **** 0.06
15864 H 222.1395220681972 31.762115700559264 79.1524493263303 H 0.0 **** 0.06
15865 H 223.72803305138135 31.77379162627369 79.95424530227953 H 0.0 **** 0.06
15866 C 248.3996091538146 305.6598230300111 133.23364931364347 C 0.0 **** -0.24
15867 H 248.1849028554497 305.0522162978855 134.11307049658072 H 0.0 **** 0.06
15868 H 248.53490700621387 306.6984539561545 133.53536215772147 H 0.0 **** 0.06
15869 H 247.56781167606454 305.59001930304976 132.53326460362226 H 0.0 **** 0.06
15870 H 249.3096018192074 305.29760416627886 132.75614518799335 H 0.0 **** 0.06
15871 C 158.41556693526752 8.632104990211303 261.28143154238137 C 0.0 **** -0.24
15872 H 157.84459411016456 9.213724792202513 260.5568242042507 H 0.0 **** 0.06
15873 H 159.06203795375598 9.29827080350482 261.8532441724943 H 0.0 **** 0.06
15874 H 159.02464327053218 7.89599753077016 260.75572898311384 H 0.0 **** 0.06
15875 H 157.73012623082485 8.120594697515742 261.9578741603109 H 0.0 **** 0.06
15876 C 276.5165999102458 2.0689476312702624 134.81225265592175 C 0.0 **** -0.24
15877 H 276.8149404480071 2.7202680315342604 133.9909421128254 H 0.0 **** 0.06
15878 H 276.9420762810065 1.0767404736789672 134.66102711074305 H 0.0 **** 0.06
15879 H 275.4287774499702 1.997932663173458 134.8416894426527 H 0.0 **** 0.06
15880 H 276.8798788819783 2.4810818898831997 135.7532500458826 H 0.0 **** 0.06
15881 C 1.0264753182311495 72.94017880585517 145.3431385401947 C 0.0 **** -0.24
15882 H 0.7019444834213004 72.11983826216348 145.98311000706124 H 0.0 **** 0.06
15883 H 0.16101219530794708 73.37297821736308 144.8410343639859 H 0.0 **** 0.06
15884 H 1.728722044412521 72.56339034539087 144.5997117850782 H 0.0 **** 0.06
15885 H 1.5148087292976555 73.70295888374073 145.9501998102639 H 0.0 **** 0.06
15886 C 30.35931616199693 39.35832755628303 218.94573570966992 C 0.0 **** -0.24
15887 H 30.706071563352594 40.14201496995145 219.6179559645325 H 0.0 **** 0.06
15888 H 30.35662902250374 39.732346314909705 217.92144078055622 H 0.0 **** 0.06
15889 H 29.34886209408026 39.05923403180873 219.22596596186673 H 0.0 **** 0.06
15890 H 31.025703564957354 38.498035448977475 219.01610384049167 H 0.0 **** 0.06
15891 C 98.23698020480859 282.93862616412184 107.83785383882264 C 0.0 **** -0.24
15892 H 97.92266185799116 281.95704749209017 108.19275331480961 H 0.0 **** 0.06
15893 H 97.41697075468701 283.407891218563 107.29304821628514 H 0.0 **** 0.06
15894 H 99.09773586208536 282.8290906920646 107.17832292388087 H 0.0 **** 0.06
15895 H 98.51022527594895 283.56129579161745 108.69032731083576 H 0.0 **** 0.06
15896 C 67.3574881991093 313.04938057482843 219.41280194314362 C 0.0 **** -0.24
15897 H 67.80358939106881 313.3919825861371 220.34730285025887 H 0.0 **** 0.06
15898 H 67.40673134495856 313.8488906722929 218.67352928243992 H 0.0 **** 0.06
15899 H 66.31651134862435 312.7768502723702 219.58619681142878 H 0.0 **** 0.06
15900 H 67.90387767178427 312.1807071099244 219.04674825707315 H 0.0 **** 0.06
15901 C 303.70544990893757 85.17534819465695 38.97858608610849 C 0.0 **** -0.24
15902 H 302.9075526592858 84.91249122173147 39.672324174862524 H 0.0 **** 0.06
15903 H 304.4177462224277 84.35251734688944 38.91519279631436 H 0.0 **** 0.06
15904 H 304.214754134809 86.07084770468106 39.333539856893566 H 0.0 **** 0.06
15905 H 303.2803998575794 85.36619256529318 37.99241813043599 H 0.0 **** 0.06
15906 C 40.95996524043858 160.97462921332811 83.62008631881312 C 0.0 **** -0.24
15907 H 41.031888922188955 161.35301929803427 82.60024158590522 H 0.0 **** 0.06
15908 H 41.35669154440728 161.7176246897684 84.31150031122309 H 0.0 **** 0.06
15909 H 41.53436219327821 160.05256760702014 83.70729229925661 H 0.0 **** 0.06
15910 H 39.915106182526756 160.77595824138467 83.86017535913831 H 0.0 **** 0.06
15911 C 146.32286127126025 193.80353576017876 283.1509904693949 C 0.0 **** -0.24
15912 H 145.87697779098085 192.8102846141719 283.191058259343 H 0.0 **** 0.06
15913 H 145.55395461654396 194.5534527367114 283.3398540175074 H 0.0 **** 0.06
15914 H 146.75633998531026 193.9677645623679 282.1646535830901 H 0.0 **** 0.06
15915 H 147.10247659624125 193.88262331459924 283.90874666659397 H 0.0 **** 0.06
15916 C 285.2962006885971 145.91421086320395 244.74882768582478 C 0.0 **** -0.24
15917 H 285.08066075543576 145.22230762852985 243.93538635698079 H 0.0 **** 0.06
15918 H 285.6254998325835 146.86786153268147 244.33670291993633 H 0.0 **** 0.06
15919 H 286.08110237289765 145.4999214435831 245.3806068933648 H 0.0 **** 0.06
15920 H 284.3947959775275 146.06699807636542 245.34325595679312 H 0.0 **** 0.06
15921 C 92.79099872064072 65.14313263438078 290.9532941166583 C 0.0 **** -0.24
15922 H 93.63988610939353 65.8270565491394 290.9556671256912 H 0.0 **** 0.06
15923 H 91.86764972443049 65.70918302502992 291.07260854337096 H 0.0 **** 0.06
15924 H 92.89380491699097 64.4355141874695 291.77567503039404 H 0.0 **** 0.06
15925 H 92.76572116971587 64.6005587832679 290.00734273349144 H 0.0 **** 0.06
15926 C 176.54844800664785 138.7019976233151 152.86407651379147 C 0.0 **** -0.24
15927 H 177.0268142822207 137.75512500574638 152.61469267280222 H 0.0 **** 0.06
15928 H 176.64683168806022 138.8878944397421 153.93337038016858 H 0.0 **** 0.06
15929 H 175.49271812508596 138.6569489054277 152.5979029291371 H 0.0 **** 0.06
15930 H 177.02855163629255 139.50813699544744 152.30948912964624 H 0.0 **** 0.06
15931 C 228.8902412795913 34.26032218897575 2.7024911310150657 C 0.0 **** -0.24
15932 H 228.1018867257025 34.62431448539914 2.0438796720216743 H 0.0 **** 0.06
15933 H 228.6245758180966 33.27108787115864 3.073835542937829 H 0.0 **** 0.06
15934 H 229.00594991656288 34.94565545431152 3.5425150470039597 H 0.0 **** 0.06
15935 H 229.82794542461195 34.20237542612222 2.1495540095394006 H 0.0 **** 0.06
15936 C 151.16685566120896 261.58960388834 173.06170432876525 C 0.0 **** -0.24
15937 H 150.6492023256451 261.2683412899538 172.15719909251106 H 0.0 **** 0.06
15938 H 150.4876376272236 262.1779559579744 173.67937985728463 H 0.0 **** 0.06
15939 H 152.02935459281264 262.1974005774079 172.7899137410339 H 0.0 **** 0.06
15940 H 151.49996148181924 260.7146260994379 173.61970229495017 H 0.0 **** 0.06
15941 C 304.8600185741235 283.9141394704542 256.92451542049247 C 0.0 **** -0.24
15942 H 304.9145270266581 284.9411911882798 256.5625444952394 H 0.0 **** 0.06
15943 H 305.7808286069663 283.3905661592367 256.66752471839055 H 0.0 **** 0.06
15944 H 304.0134944057221 283.409923658226 256.4595094073143 H 0.0 **** 0.06
15945 H 304.73241186015434 283.91708707162917 258.0068384713399 H 0.0 **** 0.06
15946 C 298.76669029731266 225.56489744114802 172.04026805461825 C 0.0 **** -0.24
15947 H 298.06466456723064 226.0883353297528 172.6892033366804 H 0.0 **** 0.06
15948 H 299.6966357970144 226.1310518436611 171.98003588804278 H 0.0 **** 0.06
15949 H 298.33611350706246 225.4670748062489 171.04375929436668 H 0.0 **** 0.06
15950 H 298.96852409628497 224.57519545512753 172.44829065229845 H 0.0 **** 0.06
15951 C 113.70979184259593 54.54581591502949 176.26734984262174 C 0.0 **** -0.24
15952 H 114.47911209470101 53.86043090430974 176.62359707221907 H 0.0 **** 0.06
15953 H 113.59141095981047 55.36121581752434 176.9795768477187 H 0.0 **** 0.06
15954 H 112.76544810892361 54.009558045135805 176.16703152160744 H 0.0 **** 0.06
15955 H 114.00305932933816 54.9484946023025 175.29806381464243 H 0.0 **** 0.06
15956 C 231.53905719230056 258.15892506608714 35.30518012315983 C 0.0 **** -0.24
15957 H 230.60640539120072 258.69782805285297 35.47176204974289 H 0.0 **** 0.06
15958 H 231.86314620885756 258.3039523045567 34.27400469425112 H 0.0 **** 0.06
15959 H 231.38201410543488 257.09596140776193 35.489917998269505 H 0.0 **** 0.06
15960 H 232.30349110726587 258.53734707428924 35.98297354167653 H 0.0 **** 0.06
15961 C 45.83642490261499 10.167774476435426 273.57214968870215 C 0.0 **** -0.24
15962 H 45.686655210992086 9.77382953249348 272.56681005873315 H 0.0 **** 0.06
15963 H 46.8020716888486 10.669621887658195 273.62612937132803 H 0.0 **** 0.06
15964 H 45.81216754466345 9.347502806026668 274.2901136995493 H 0.0 **** 0.06
15965 H 45.04409199526151 10.87892578127314 273.80563573802414 H 0.0 **** 0.06
15966 C 227.3888079943279 141.05136653843567 52.305378326297216 C 0.0 **** -0.24
15967 H 227.3174800059018 141.52793240622248 53.28351106037232 H 0.0 **** 0.06
15968 H 227.85171688082778 140.07012330717748 52.41254845333333 H 0.0 **** 0.06
15969 H 227.99630295910057 141.6694723983311 51.643996163238995 H 0.0 **** 0.06
15970 H 226.39151761573117 140.93890963374284 51.88238933528842 H 0.0 **** 0.06
15971 C 192.28209572381525 251.6007673277245 156.91182137829412 C 0.0 **** -0.24
15972 H 193.01141126753447 252.30263535891737 157.31584545289525 H 0.0 **** 0.06
15973 H 191.6931488260384 251.17941443690722 157.72639528049825 H 0.0 **** 0.06
15974 H 192.80279748252315 250.7981109333466 156.3875783521013 H 0.0 **** 0.06
15975 H 191.62264238513472 252.12114456890538 156.21694356686663 H 0.0 **** 0.06
15976 C 213.56717254344636 240.83458276634374 17.63705364090667 C 0.0 **** -0.24
15977 H 213.905231854035 241.58540594295565 18.35085459870686 H 0.0 **** 0.06
15978 H 212.76011734344527 240.24955807065064 18.079291545560352 H 0.0 **** 0.06
15979 H 214.39658340342316 240.1753162868854 17.38309167599178 H 0.0 **** 0.06
15980 H 213.2062820197305 241.3284378471087 16.734186793335155 H 0.0 **** 0.06
15981 C 33.84670461123625 242.6747400711663 222.69862710503787 C 0.0 **** -0.24
15982 H 33.97145033617744 242.81564834661376 221.62511198598736 H 0.0 **** 0.06
15983 H 34.81275332887898 242.78024665759906 223.1935721433298 H 0.0 **** 0.06
15984 H 33.44662544797538 241.67918927852952 222.889390387597 H 0.0 **** 0.06
15985 H 33.15496216132149 243.42406461177774 223.08445669070122 H 0.0 **** 0.06
15986 C 40.51350356858151 292.00615182787516 244.20961627021074 C 0.0 **** -0.24
15987 H 39.451257985792694 292.15390324895054 244.01629222369542 H 0.0 **** 0.06
15988 H 41.087947269505946 292.31604405096044 243.33641663882372 H 0.0 **** 0.06
15989 H 40.70139828191216 290.9510672938729 244.41285642485894 H 0.0 **** 0.06
15990 H 40.812476139494294 292.6015154447007 245.07199896544495 H 0.0 **** 0.06
15991 C 150.09601757328187 38.16603664107046 301.4157901367142 C 0.0 **** -0.24
15992 H 150.11193101151815 37.106913604534355 301.6756891793966 H 0.0 **** 0.06
15993 H 149.71236189327504 38.74073462495491 302.2594268484371 H 0.0 **** 0.06
15994 H 149.4516686855406 38.317108252028845 300.55014804799816 H 0.0 **** 0.06
15995 H 151.10703151189068 38.49639636376935 301.1788331437927 H 0.0 **** 0.06
15996 C 308.72469748986236 126.71087695456026 273.5382854168231 C 0.0 **** -0.24
15997 H 308.35611877052446 127.73570756750792 273.49678492016653 H 0.0 **** 0.06
15998 H 308.03321462186665 126.05488202366342 273.0084595503729 H 0.0 **** 0.06
15999 H 308.8016811346464 126.39380317039127 274.5788833647314 H 0.0 **** 0.06
16000 H 309.7064650996473 126.65858307364397 273.0690082550333 H 0.0 **** 0.06
16001 C 147.88726982554152 130.59926048146264 67.61784221370704 C 0.0 **** -0.24
16002 H 148.1718038196819 130.79318188588098 66.58387836377099 H 0.0 **** 0.06
16003 H 148.40405904655924 129.70755526535774 67.97474845525682 H 0.0 **** 0.06
16004 H 146.81024350570462 130.44299848605505 67.67464752142934 H 0.0 **** 0.06
16005 H 148.1644651320284 131.45266928475561 68.23655581932778 H 0.0 **** 0.06
16006 C 94.626837244457 138.10182840783446 104.01960241128393 C 0.0 **** -0.24
16007 H 95.56645632416004 138.64912088130492 103.95789118854861 H 0.0 **** 0.06
16008 H 94.49355003205136 137.72213119445323 105.0336018709645 H 0.0 **** 0.06
16009 H 94.64491294135638 137.26703928806293 103.31908564215735 H 0.0 **** 0.06
16010 H 93.80095317608036 138.7678926513657 103.7694259136141 H 0.0 **** 0.06
16011 C 158.8194782948828 287.32004244244746 220.11115104996657 C 0.0 **** -0.24
16012 H 158.713801876432 288.3275632677787 219.708557418433 H 0.0 **** 0.06
16013 H 157.93444157932026 286.7345640586558 219.8601203175582 H 0.0 **** 0.06
16014 H 158.92666581631988 287.3715921593386 221.19447916751665 H 0.0 **** 0.06
16015 H 159.70202481944443 286.8479192500889 219.68007487227936 H 0.0 **** 0.06
16016 C 168.57632419310016 145.14016352138384 147.02235643491343 C 0.0 **** -0.24
16017 H 167.91033674689157 145.3924826983746 147.84686422715697 H 0.0 **** 0.06
16018 H 168.820564381709 146.04363823571666 146.46334791784292 H 0.0 **** 0.06
16019 H 168.08322471045994 144.42635653601732 146.36187188442975 H 0.0 **** 0.06
16020 H 169.49091768160656 144.69782499760413 147.41599551652624 H 0.0 **** 0.06
16021 C 108.38153551594075 299.99634895428096 292.99809416929963 C 0.0 **** -0.24
16022 H 109.19206187185071 300.71829313837515 292.89191518197714 H 0.0 **** 0.06
16023 H 107.58575297017333 300.4318361732679 293.60344479298203 H 0.0 **** 0.06
16024 H 108.75828799011808 299.09667034453776 293.48531724472895 H 0.0 **** 0.06
16025 H 107.99106510568154 299.7410848796897 292.0133589473238 H 0.0 **** 0.06
16026 C 278.92636427274226 94.63395154058833 92.24365535473027 C 0.0 **** -0.24
16027 H 279.49597953268847 93.70743686104964 92.32328172762735 H 0.0 **** 0.06
16028 H 279.153520781538 95.11840786435155 91.293998921586 H 0.0 **** 0.06
16029 H 279.19635092755857 95.29737704295789 93.06554595626744 H 0.0 **** 0.06
16030 H 277.86076055130513 94.40984474244573 92.2921960776059 H 0.0 **** 0.06
16031 C 286.512926363109 188.26271045153743 47.66271553670339 C 0.0 **** -0.24
16032 H 286.8388392625193 188.55063938649022 48.66221143985149 H 0.0 **** 0.06
16033 H 287.2630574584774 187.61449489142404 47.20974503308412 H 0.0 **** 0.06
16034 H 286.3854854022375 189.1559314065841 47.05129303459205 H 0.0 **** 0.06
16035 H 285.5644106941877 187.7295600195922 47.73092107045352 H 0.0 **** 0.06
16036 C 247.55256992606954 313.2173792483398 161.42917177691595 C 0.0 **** -0.24
16037 H 248.04544383388168 312.90143392128715 160.509481495687 H 0.0 **** 0.06
16038 H 247.63799246506483 312.4275184318883 162.176127756202 H 0.0 **** 0.06
16039 H 246.49953031347314 313.4142812227583 161.22738838324528 H 0.0 **** 0.06
16040 H 248.0279543706931 314.12428795461943 161.80291042685627 H 0.0 **** 0.06
16041 C 21.21261180357442 289.22005487583283 313.50175926206856 C 0.0 **** -0.24
16042 H 20.462897992922706 288.895315843091 312.7802967804613 H 0.0 **** 0.06
16043 H 20.728496340192805 289.4419658404206 314.4533148811526 H 0.0 **** 0.06
16044 H 21.710447234200046 290.11506757429703 313.13055649115347 H 0.0 **** 0.06
16045 H 21.947396578440873 288.42713725455815 313.6428986698943 H 0.0 **** 0.06
16046 C 59.052137769997046 178.90373987607938 189.414546061198 C 0.0 **** -0.24
16047 H 58.262865156305395 178.15805817131871 189.51265767481237 H 0.0 **** 0.06
16048 H 59.65964538851361 178.9099969770299 190.31984308130643 H 0.0 **** 0.06
16049 H 58.60626669469036 179.88800842735435 189.26968490275885 H 0.0 **** 0.06
16050 H 59.67966469146904 178.65866200395442 188.55738904438283 H 0.0 **** 0.06
16051 C 232.08161669631602 165.18934616752313 293.11493046545047 C 0.0 **** -0.24
16052 H 232.4539261403098 164.52691262235334 292.3328615232084 H 0.0 **** 0.06
16053 H 231.00243603618918 165.07265173644294 293.20720102668247 H 0.0 **** 0.06
16054 H 232.3163107043384 166.2228145309225 292.8575509399325 H 0.0 **** 0.06
16055 H 232.55751236735568 164.93487300927842 294.06250266669457 H 0.0 **** 0.06
16056 C 145.71259981121196 217.20447988040746 32.04884337569811 C 0.0 **** -0.24
16057 H 146.36871623574936 217.22903488965284 31.17958355687574 H 0.0 **** 0.06
16058 H 146.2065771161109 216.6726440862346 32.86217692440189 H 0.0 **** 0.06
16059 H 144.78551724208273 216.69252142730005 31.790081314672165 H 0.0 **** 0.06
16060 H 145.4887973001529 218.22415524001272 32.365009399460234 H 0.0 **** 0.06
16061 C 81.57424276672498 70.37074813559855 137.85505446979647 C 0.0 **** -0.24
16062 H 82.55884104549 69.92099212929213 137.72535822414994 H 0.0 **** 0.06
16063 H 81.66770715007843 71.2840673243918 138.4434512941013 H 0.0 **** 0.06
16064 H 80.91949919031612 69.66943825999635 138.37249978888778 H 0.0 **** 0.06
16065 H 81.15260681550205 70.60864693194219 136.87852918251565 H 0.0 **** 0.06
16066 C 252.8779084311164 243.81121958765397 95.82196438346088 C 0.0 **** -0.24
16067 H 252.4344190627657 242.84768527877475 96.07547014535811 H 0.0 **** 0.06
16068 H 253.91901358450156 243.66637668020223 95.53296967239336 H 0.0 **** 0.06
16069 H 252.82907028811064 244.47206456187791 96.68650420249352 H 0.0 **** 0.06
16070 H 252.32849182035787 244.25617189565924 94.99194620030062 H 0.0 **** 0.06
16071 C 153.89634172551217 149.63747690588264 314.07740339655174 C 0.0 **** -0.24
16072 H 154.81998009626875 150.11597968740114 314.40525336931756 H 0.0 **** 0.06
16073 H 153.23743778825434 149.4955371866116 314.93321474331583 H 0.0 **** 0.06
16074 H 154.1283359779663 148.66975464011873 313.63203878680713 H 0.0 **** 0.06
16075 H 153.40359418371065 150.26871667530207 313.33803707144614 H 0.0 **** 0.06
16076 C 173.8863023956007 23.179385513845233 184.37187642937624 C 0.0 **** -0.24
16077 H 172.87973120949164 23.289856475697263 184.77635135791627 H 0.0 **** 0.06
16078 H 173.87360664684934 23.401427670811074 183.30464053697546 H 0.0 **** 0.06
16079 H 174.22978410821867 22.157060057709373 184.52684842834793 H 0.0 **** 0.06
16080 H 174.55948743364632 23.87059423067305 184.87912761463326 H 0.0 **** 0.06
16081 C 164.8705129692795 4.235759081503588 77.17050861804313 C 0.0 **** -0.24
16082 H 164.44799851128954 3.8963837688040996 78.11567541551926 H 0.0 **** 0.06
16083 H 165.9390161004775 4.41378307313235 77.29256134354694 H 0.0 **** 0.06
16084 H 164.38073238852013 5.16021374413198 76.86424090787355 H 0.0 **** 0.06
16085 H 164.71404027506884 3.4716014845753023 76.40820827083195 H 0.0 **** 0.06
16086 C 95.59831251926377 30.118157737424667 285.63088441841666 C 0.0 **** -0.24
16087 H 94.70870326782077 29.825532791864987 286.1894230249275 H 0.0 **** 0.06
16088 H 95.44099409881238 31.10155959055305 285.1881812915989 H 0.0 **** 0.06
16089 H 95.78814341183934 29.389238428685076 284.84303657566034 H 0.0 **** 0.06
16090 H 96.45373189658346 30.1551821901229 286.3060490150986 H 0.0 **** 0.06
16091 C 275.1546159973229 4.929034550499566 282.3383107172695 C 0.0 **** -0.24
16092 H 276.18550565901865 5.1875583352174885 282.0948188047138 H 0.0 **** 0.06
16093 H 275.13198071636424 3.9652365886925054 282.84547585428857 H 0.0 **** 0.06
16094 H 274.5690066583606 4.871526265555275 281.4202634126497 H 0.0 **** 0.06
16095 H 274.73303997457435 5.694071942529931 282.99028218570834 H 0.0 **** 0.06
16096 C 10.249722453711144 5.612380857791976 132.5470643345309 C 0.0 **** -0.24
16097 H 10.207323832170715 6.667270246729601 132.81896337059476 H 0.0 **** 0.06
16098 H 9.315763276096007 5.3244169392597485 132.0647041111644 H 0.0 **** 0.06
16099 H 10.397191713144764 5.0118960961832215 133.44453980335345 H 0.0 **** 0.06
16100 H 11.079719595381931 5.448931845434089 131.85870067975898 H 0.0 **** 0.06
16101 C 12.4823051073476 222.17886031094935 240.0488983964988 C 0.0 **** -0.24
16102 H 12.754070075668494 222.60349333429255 241.0150546702361 H 0.0 **** 0.06
16103 H 11.461207372312728 221.79866197258556 240.09315891696747 H 0.0 **** 0.06
16104 H 13.162524145650949 221.36335159437465 239.80622796879382 H 0.0 **** 0.06
16105 H 12.550429942659449 222.9499508868668 239.2812997500966 H 0.0 **** 0.06
16106 C 22.778931645202874 232.19847754288952 11.281973396138198 C 0.0 **** -0.24
16107 H 22.271191635271975 231.33573169364246 10.851367974224118 H 0.0 **** 0.06
16108 H 23.53582875809127 232.5594676100573 10.585904951142297 H 0.0 **** 0.06
16109 H 23.255301209168124 231.9101476445415 12.219184823538825 H 0.0 **** 0.06
16110 H 22.053050284128744 232.98885065643805 11.47232554276944 H 0.0 **** 0.06
16111 C 45.29806596279056 52.575012041378926 248.8961496580332 C 0.0 **** -0.24
16112 H 46.00334249251995 53.13289434335127 248.2797725771823 H 0.0 **** 0.06
16113 H 44.291370573101574 52.96028230796924 248.73366407480236 H 0.0 **** 0.06
16114 H 45.56579377400894 52.68718004690629 249.94673783000897 H 0.0 **** 0.06
16115 H 45.33250142057449 51.520571514330896 248.62250806170283 H 0.0 **** 0.06
16116 C 307.3659948774672 154.76898486781317 24.059176395418604 C 0.0 **** -0.24
16117 H 307.43663546745256 154.07113483703966 23.22408083367594 H 0.0 **** 0.06
16118 H 307.54721931448853 155.78176865204716 23.700276609241712 H 0.0 **** 0.06
16119 H 308.1101385766961 154.51090743892593 24.812275686934186 H 0.0 **** 0.06
16120 H 306.37024637765535 154.71051027112173 24.49755978031871 H 0.0 **** 0.06
16121 C 280.73441344322805 148.37421706146705 21.96944332643787 C 0.0 **** -0.24
16122 H 280.8460614399419 149.28507934947004 22.558231038805303 H 0.0 **** 0.06
16123 H 280.80133044274135 147.50687183555638 22.626226947071984 H 0.0 **** 0.06
16124 H 281.5253244717595 148.3271561390791 21.221871017029287 H 0.0 **** 0.06
16125 H 279.7635904945298 148.38100741155753 21.472248142661556 H 0.0 **** 0.06
16126 C 193.62814949591325 162.144467260451 175.78374248615552 C 0.0 **** -0.24
16127 H 192.89761333250425 161.4794768233176 175.3235143029396 H 0.0 **** 0.06
16128 H 194.39778730651858 162.39905411643997 175.05571603125912 H 0.0 **** 0.06
16129 H 194.08615463029997 161.64471209833528 176.63774683515487 H 0.0 **** 0.06
16130 H 193.1291834068257 163.0532003784922 176.11986643715534 H 0.0 **** 0.06
16131 C 155.9608214192234 28.800362601797815 234.26647937915973 C 0.0 **** -0.24
16132 H 156.66549788672813 29.621879600296268 234.39431226187722 H 0.0 **** 0.06
16133 H 155.8046300180057 28.618352949067088 233.20335423088687 H 0.0 **** 0.06
16134 H 155.01114195805616 29.06174138371901 234.73380732140623 H 0.0 **** 0.06
16135 H 156.36158316368284 27.901069818255593 234.73496723045523 H 0.0 **** 0.06
16136 C 288.3332253841636 291.1619354455186 243.90326537252835 C 0.0 **** -0.24
16137 H 288.26925428142346 291.9450164434588 243.14713760367553 H 0.0 **** 0.06
16138 H 287.4413624166459 291.18757431291453 244.52912593537866 H 0.0 **** 0.06
16139 H 289.2162776296065 291.3268818832876 244.52108472886943 H 0.0 **** 0.06
16140 H 288.40760069116857 290.1907772748199 243.4153007578056 H 0.0 **** 0.06
16141 C 140.9149201051664 86.28576765921099 281.99142777925334 C 0.0 **** -0.24
16142 H 140.8115622854754 85.25719518258123 282.3366496935471 H 0.0 **** 0.06
16143 H 141.9468521054426 86.46564568189032 281.69003336391717 H 0.0 **** 0.06
16144 H 140.64704655403696 86.96838698250639 282.79823009240084 H 0.0 **** 0.06
16145 H 140.25421947571058 86.4518427898659 281.1407979671483 H 0.0 **** 0.06
16146 C 190.45799223159582 57.09819691838928 31.967592216430205 C 0.0 **** -0.24
16147 H 189.72544999044618 57.90149004570813 31.89876373490597 H 0.0 **** 0.06
16148 H 191.393653775769 57.49209370828953 32.364502966903956 H 0.0 **** 0.06
16149 H 190.63181902248624 56.68005232693832 30.975497612675667 H 0.0 **** 0.06
16150 H 190.08177613641556 56.31861753958191 32.62955957893337 H 0.0 **** 0.06
16151 C 132.2735055180405 288.4332350685382 46.09092625493429 C 0.0 **** -0.24
16152 H 132.02915854900053 288.6536140357611 47.129965724081444 H 0.0 **** 0.06
16153 H 131.57725118839122 288.95723981848244 45.43581154564228 H 0.0 **** 0.06
16154 H 132.19675535864624 287.35982068166004 45.92001600512114 H 0.0 **** 0.06
16155 H 133.2910066379031 288.7634968760925 45.879772369378145 H 0.0 **** 0.06
16156 C 283.82086509862677 261.43609894134045 232.15279063221305 C 0.0 **** -0.24
16157 H 283.2090180578286 262.3011167380018 231.8959195316846 H 0.0 **** 0.06
16158 H 284.36507523222895 261.6383521802138 233.0764292613011 H 0.0 **** 0.06
16159 H 284.5296852507829 261.2424142303047 231.34837371934742 H 0.0 **** 0.06
16160 H 283.17978260543424 260.56543347021125 232.29111714663938 H 0.0 **** 0.06
16161 C 72.3873496705638 283.28941875100065 232.78254814990885 C 0.0 **** -0.24
16162 H 72.962390685452 283.66618314741754 231.9376512547796 H 0.0 **** 0.06
16163 H 72.5695568227489 282.22067576630445 232.89912576501726 H 0.0 **** 0.06
16164 H 71.32507424750557 283.46023724843184 232.60523678338677 H 0.0 **** 0.06
16165 H 72.69220533836517 283.811253031076 233.69052742443392 H 0.0 **** 0.06
16166 C 308.5346263450506 36.18452659367995 59.748551606407915 C 0.0 **** -0.24
16167 H 309.1434255508715 36.85199632866937 60.35774125342459 H 0.0 **** 0.06
16168 H 308.8217846394661 35.15137482050147 59.9440736701701 H 0.0 **** 0.06
16169 H 308.6899751351363 36.41300210918689 58.69408442210471 H 0.0 **** 0.06
16170 H 307.483341624417 36.32356443972358 59.99958997198112 H 0.0 **** 0.06
16171 C 253.60827686834597 185.23388623055263 242.13787226271802 C 0.0 **** -0.24
16172 H 253.38442708234186 186.16739183797625 242.65500465200557 H 0.0 **** 0.06
16173 H 253.38989381299177 184.3933326698101 242.79558716811422 H 0.0 **** 0.06
16174 H 254.6636543100317 185.2165295880489 241.86315684781098 H 0.0 **** 0.06
16175 H 252.99750584952255 185.1606575714007 241.23906879829985 H 0.0 **** 0.06
16176 C 103.901540165852 260.5984842508976 158.1925532668351 C 0.0 **** -0.24
16177 H 103.81112872977081 260.56951564563485 157.1061956153423 H 0.0 **** 0.06
16178 H 103.36461868001777 261.46512783959747 158.5785773067119 H 0.0 **** 0.06
16179 H 104.9535401445226 260.66969876421 158.46823040848852 H 0.0 **** 0.06
16180 H 103.47588968691889 259.6890326091676 158.61636304745298 H 0.0 **** 0.06
16181 C 28.308081414134108 187.99803461561027 258.3697924085891 C 0.0 **** -0.24
16182 H 28.98968900515183 187.93895571625484 259.2171831783461 H 0.0 **** 0.06
16183 H 28.533218390750562 188.89061326477895 257.7841354637882 H 0.0 **** 0.06
16184 H 27.28142437695925 188.04976262529215 258.73128499179154 H 0.0 **** 0.06
16185 H 28.42898160134871 187.11319050202172 257.7445969265038 H 0.0 **** 0.06
16186 C 6.382277225373514 157.85193215890962 83.46889270247203 C 0.0 **** -0.24
16187 H 6.56172183323622 157.09802649969993 82.7025636357815 H 0.0 **** 0.06
16188 H 5.37432791186626 157.73403266255565 83.86552885306591 H 0.0 **** 0.06
16189 H 6.488206732998265 158.84491916362128 83.03216613211839 H 0.0 **** 0.06
16190 H 7.107210174054501 157.73003164859597 84.27392489876794 H 0.0 **** 0.06
16191 C 21.796051774197423 262.825805852997 147.38770823861833 C 0.0 **** -0.24
16192 H 22.650251318813304 263.1252030461106 147.99385904693628 H 0.0 **** 0.06
16193 H 22.14511542329035 262.28226511496575 146.5097712336392 H 0.0 **** 0.06
16194 H 21.24730451336123 263.71340372552737 147.0709183780163 H 0.0 **** 0.06
16195 H 21.140473886607055 262.18364949908675 147.97585124859333 H 0.0 **** 0.06
16196 C 217.33725047461428 224.01558725257814 298.22253471064107 C 0.0 **** -0.24
16197 H 217.2536837982604 224.4012568476533 297.2056596291094 H 0.0 **** 0.06
16198 H 217.95504930716706 224.69006131506697 298.8158775237911 H 0.0 **** 0.06
16199 H 217.7954918128126 223.02743165739773 298.1995186183283 H 0.0 **** 0.06
16200 H 216.34467462194056 223.94610493073213 298.666912625143 H 0.0 **** 0.06
16201 C 89.63197315625854 163.38625738441795 298.97469116809975 C 0.0 **** -0.24
16202 H 90.28584575288855 162.51345647215157 298.95209575496267 H 0.0 **** 0.06
16203 H 89.85141358740478 164.02625963439868 298.1205053780443 H 0.0 **** 0.06
16204 H 89.80087590287167 163.9415817142264 299.8974923940037 H 0.0 **** 0.06
16205 H 88.5924165462684 163.06137193904658 298.92983748849605 H 0.0 **** 0.06
16206 C 32.98805436609385 3.0493862021129132 137.896253329633 C 0.0 **** -0.24
16207 H 33.0507072901446 4.077511855506856 138.25447059222367 H 0.0 **** 0.06
16208 H 31.976766829052877 2.672993581447926 138.0469698115247 H 0.0 **** 0.06
16209 H 33.69372503652738 2.42953145618624 138.45004422181492 H 0.0 **** 0.06
16210 H 33.233700709735956 3.0191428730016554 136.8349887244072 H 0.0 **** 0.06
16211 C 8.687105562390329 212.42696317198715 126.39855932357094 C 0.0 **** -0.24
16212 H 9.158288766937602 211.51263217955398 126.03690122928572 H 0.0 **** 0.06
16213 H 8.291368998493652 212.25967732807885 127.40004939640559 H 0.0 **** 0.06
16214 H 7.874099323214097 212.70578055740566 125.72798265242068 H 0.0 **** 0.06
16215 H 9.425249554892446 213.22827153282336 126.42745059742504 H 0.0 **** 0.06
16216 C 84.60875964105296 200.03500716669174 251.3332704323095 C 0.0 **** -0.24
16217 H 85.35799817997673 200.80314979192428 251.52190994038725 H 0.0 **** 0.06
16218 H 83.61549438890236 200.48342022689855 251.35320071076825 H 0.0 **** 0.06
16219 H 84.6751939786856 199.2670083608612 252.10354743478032 H 0.0 **** 0.06
16220 H 84.78576155164328 199.5863089505641 250.35657571151253 H 0.0 **** 0.06
16221 C 70.75590590653448 65.43494269311913 158.3089561875559 C 0.0 **** -0.24
16222 H 70.44450369685427 66.34713392371273 158.81885733180093 H 0.0 **** 0.06
16223 H 71.22722698920757 64.76228550716846 159.02536884521817 H 0.0 **** 0.06
16224 H 71.46671976964154 65.68350710575311 157.52150540795066 H 0.0 **** 0.06
16225 H 69.88470567680773 64.94869331184967 157.87163017359643 H 0.0 **** 0.06
16226 C 79.16972488112432 250.08971211001926 90.56561607579798 C 0.0 **** -0.24
16227 H 78.61065573808617 250.01864385624447 91.49936783769652 H 0.0 **** 0.06
16228 H 79.20139215470198 249.1106663469197 90.08607678258369 H 0.0 **** 0.06
16229 H 80.18493826286036 250.42484785304137 90.77523517770584 H 0.0 **** 0.06
16230 H 78.68081773896654 250.8029010268021 89.90304855562289 H 0.0 **** 0.06
16231 C 264.47615560024644 14.181395473912403 249.27475456369876 C 0.0 **** -0.24
16232 H 263.84888186076466 13.348089542080572 248.95703734212915 H 0.0 **** 0.06
16233 H 264.1461524450679 15.093341473970668 248.77567263918996 H 0.0 **** 0.06
16234 H 265.5138599494534 13.97686092028465 249.00972314373013 H 0.0 **** 0.06
16235 H 264.39428998263367 14.307047615449676 250.35396348961538 H 0.0 **** 0.06
16236 C 38.83614558360796 3.626104936734805 271.7776595628363 C 0.0 **** -0.24
16237 H 38.66054637243985 3.0104641227651427 272.65964746160375 H 0.0 **** 0.06
16238 H 39.24151087191714 3.005896469729578 270.97747783617075 H 0.0 **** 0.06
16239 H 39.54786071134373 4.414984866490499 272.0221782448009 H 0.0 **** 0.06
16240 H 37.89653921763545 4.072231785221845 271.45221515794105 H 0.0 **** 0.06
16241 C 2.7327566391786604 305.9912645875467 175.47540701890296 C 0.0 **** -0.24
16242 H 1.655625428961514 306.0781340892799 175.61550838349854 H 0.0 **** 0.06
16243 H 3.1194120634202704 306.91846734331307 175.05270738375543 H 0.0 **** 0.06
16244 H 2.9449712814077316 305.1656069097361 174.79645363837517 H 0.0 **** 0.06
16245 H 3.2101501882931416 305.8031563456858 176.43735038568673 H 0.0 **** 0.06
16246 C 67.2159937870754 161.7371707772079 279.60188262817815 C 0.0 **** -0.24
16247 H 67.44510170376265 162.76403016330215 279.31705335748427 H 0.0 **** 0.06
16248 H 67.2527084715355 161.64459113427858 280.6877511265587 H 0.0 **** 0.06
16249 H 67.94848188118596 161.06464723844033 279.1546269572673 H 0.0 **** 0.06
16250 H 66.21836395148387 161.47564218734465 279.2474029203833 H 0.0 **** 0.06
16251 C 301.08853106794174 12.171121937220846 43.33399935246774 C 0.0 **** -0.24
16252 H 300.73834116981317 11.161035459637844 43.547762528073264 H 0.0 **** 0.06
16253 H 300.59346179864116 12.875796593007806 44.002726801748764 H 0.0 **** 0.06
16254 H 300.85416434615985 12.42443830175165 42.300008342005185 H 0.0 **** 0.06
16255 H 302.16621260163134 12.22173894743787 43.48531615441462 H 0.0 **** 0.06
16256 C 47.642954005172925 154.482948857493 285.9786189902257 C 0.0 **** -0.24
16257 H 48.28824052217723 153.6717607619649 286.31358992618965 H 0.0 **** 0.06
16258 H 46.787134587465005 154.56668733906213 286.64869983793955 H 0.0 **** 0.06
16259 H 47.29417222752602 154.27626916968154 284.96733212513584 H 0.0 **** 0.06
16260 H 48.2032338738733 155.4183245333585 285.9864399410267 H 0.0 **** 0.06
16261 C 195.38624724558645 274.24115095259816 295.30196522484124 C 0.0 **** -0.24
16262 H 196.28123771426323 274.3226228153536 294.6843239445588 H 0.0 **** 0.06
16263 H 194.57551992199944 273.8133019295143 294.71155115499766 H 0.0 **** 0.06
16264 H 195.0981211549926 275.2316330594865 295.65379743014785 H 0.0 **** 0.06
16265 H 195.59259487181862 273.59693054518584 296.1568418680847 H 0.0 **** 0.06
16266 C 179.9151628963196 252.26943002036836 60.73281365005789 C 0.0 **** -0.24
16267 H 179.898351004091 252.41483142913427 59.652528899602146 H 0.0 **** 0.06
16268 H 180.8615623255493 252.63334096241005 61.133238796736634 H 0.0 **** 0.06
16269 H 179.8089796659853 251.2090632432255 60.957921982802986 H 0.0 **** 0.06
16270 H 179.09156902493459 252.82194389194467 61.186651631259 H 0.0 **** 0.06
16271 C 246.96084272272293 161.46292528765764 223.04705715418845 C 0.0 **** -0.24
16272 H 247.70855180158097 161.86413161420808 223.7310308128611 H 0.0 **** 0.06
16273 H 246.36944694807443 162.28092937847612 222.63547521110755 H 0.0 **** 0.06
16274 H 246.30710524831494 160.77614592833584 223.5863277578568 H 0.0 **** 0.06
16275 H 247.45787601350628 160.9290036935693 222.23701518615792 H 0.0 **** 0.06
16276 C 313.5850357903254 22.26455030588062 74.43664554997918 C 0.0 **** -0.24
16277 H 313.7966576858491 23.32824429120322 74.54616554545652 H 0.0 **** 0.06
16278 H 312.5506926459665 22.068887992579278 74.72196970839025 H 0.0 **** 0.06
16279 H 314.2539356114646 21.69283996520764 75.08054823605596 H 0.0 **** 0.06
16280 H 313.7385597772741 21.9686433270428 73.39875885273591 H 0.0 **** 0.06
16281 C 7.929967456043357 47.70255610395091 173.84026535245323 C 0.0 **** -0.24
16282 H 8.936847726561496 47.58236115720814 174.24142573239135 H 0.0 **** 0.06
16283 H 7.571116297874596 46.74445233282097 173.4659615262829 H 0.0 **** 0.06
16284 H 7.947202044871062 48.42801501132604 173.02643508991451 H 0.0 **** 0.06
16285 H 7.26526412985794 48.05670851332445 174.6289604230613 H 0.0 **** 0.06
16286 C 132.12566251054858 262.52504848217484 96.94844220792297 C 0.0 **** -0.24
16287 H 132.95272316415213 262.1803848727063 96.3284647749293 H 0.0 **** 0.06
16288 H 131.18408918590097 262.1707341176961 96.52772334706134 H 0.0 **** 0.06
16289 H 132.12412965081413 263.6149745535637 96.97986135667517 H 0.0 **** 0.06
16290 H 132.24286852278075 262.13237820997136 97.95901836184166 H 0.0 **** 0.06
16291 C 284.5696512449307 149.49992597364707 87.96256218410574 C 0.0 **** -0.24
16292 H 284.50365569193093 149.3879045479439 86.88033802194803 H 0.0 **** 0.06
16293 H 285.18070260662284 150.37053928697577 88.20006174287636 H 0.0 **** 0.06
16294 H 285.02393225172557 148.60826348237487 88.39233318081406 H 0.0 **** 0.06
16295 H 283.570118407705 149.63378723037096 88.37543337254985 H 0.0 **** 0.06
16296 C 175.09965699665736 30.407923748127956 133.4680120318725 C 0.0 **** -0.24
16297 H 175.12403990105554 31.479180329898014 133.6694969270537 H 0.0 **** 0.06
16298 H 175.24305451394912 29.8591626006436 134.39900865194232 H 0.0 **** 0.06
16299 H 175.89505903321407 30.15203601658513 132.76859197528515 H 0.0 **** 0.06
16300 H 174.13503351819713 30.14298807513103 133.03459308224626 H 0.0 **** 0.06
16301 C 254.3714265101529 12.443136501840442 25.646425818582486 C 0.0 **** -0.24
16302 H 253.76891189285837 11.968024839383375 26.42115183332936 H 0.0 **** 0.06
16303 H 254.5685846613089 11.726183553179439 24.849266810655536 H 0.0 **** 0.06
16304 H 255.31459857053548 12.780648049589715 26.074862237238563 H 0.0 **** 0.06
16305 H 253.82997602498767 13.298179490779248 25.239682390425287 H 0.0 **** 0.06
16306 C 189.09072898022487 144.9001200978752 277.1662112063465 C 0.0 **** -0.24
16307 H 188.52697844154068 144.12949149187511 277.69256112275446 H 0.0 **** 0.06
16308 H 188.90245470774016 145.86876691287057 277.6307642200104 H 0.0 **** 0.06
16309 H 188.77722226741986 144.9298738053563 276.1226406009972 H 0.0 **** 0.06
16310 H 190.15517787543723 144.67101583774124 277.2191086398685 H 0.0 **** 0.06
16311 C 174.0175449940159 279.9113456036683 82.20085282563826 C 0.0 **** -0.24
16312 H 173.06123338120778 280.15221944497296 82.66396321945987 H 0.0 **** 0.06
16313 H 174.34387075121475 280.74842175528494 81.58249178784013 H 0.0 **** 0.06
16314 H 173.90761403520145 279.02169883162657 81.5806736937958 H 0.0 **** 0.06
16315 H 174.75957773720353 279.72269592268987 82.97691729302068 H 0.0 **** 0.06
16316 C 110.30788000230984 205.65398078306225 216.13768317285886 C 0.0 **** -0.24
16317 H 109.34794583853298 205.6751690478426 215.6231311325222 H 0.0 **** 0.06
16318 H 110.15062232970493 205.79821553345852 217.20705388293166 H 0.0 **** 0.06
16319 H 110.94381019448545 206.4517834167923 215.75311705199186 H 0.0 **** 0.06
16320 H 110.7902780260186 204.69154404760036 215.9671369128924 H 0.0 **** 0.06
16321 C 179.43295730350036 160.48609223193563 258.00161649632344 C 0.0 **** -0.24
16322 H 179.3402445644802 160.88210735226852 256.99072198206375 H 0.0 **** 0.06
16323 H 180.0965567907266 159.62113831144586 257.9937559597409 H 0.0 **** 0.06
16324 H 178.44993554116297 160.1876795282178 258.3662593682828 H 0.0 **** 0.06
16325 H 179.84509694303415 161.25442719858108 258.65590973897076 H 0.0 **** 0.06
16326 C 124.90991857633642 14.382755623420621 300.9297152327907 C 0.0 **** -0.24
16327 H 124.70139238887029 13.888795823478517 301.8787815611319 H 0.0 **** 0.06
16328 H 124.17771339052632 15.172386219222915 300.7630735967259 H 0.0 **** 0.06
16329 H 124.84945056597707 13.654674912968744 300.1208175578026 H 0.0 **** 0.06
16330 H 125.91077344284113 14.814333912075483 300.95662377347895 H 0.0 **** 0.06
16331 C 5.75815746945257 2.1985056011411785 64.42585185567785 C 0.0 **** -0.24
16332 H 5.7123987251319335 1.8414876852198603 63.39636717838144 H 0.0 **** 0.06
16333 H 6.3682659575420075 1.516070213577052 65.01870928413956 H 0.0 **** 0.06
16334 H 4.751833739131726 2.2404249922605857 64.84019791332642 H 0.0 **** 0.06
16335 H 6.201931642003245 3.1938611412032145 64.44568068320476 H 0.0 **** 0.06
16336 C 144.0138151672401 159.58871110680343 22.073559741228564 C 0.0 **** -0.24
16337 H 144.36924887308408 159.5986917169535 21.04308333729378 H 0.0 **** 0.06
16338 H 144.47415853634115 160.40865748184706 22.62533259043866 H 0.0 **** 0.06
16339 H 144.28182077860552 158.64040357103596 22.540452838555325 H 0.0 **** 0.06
16340 H 142.93013733251613 159.70570363219753 22.085620001050444 H 0.0 **** 0.06
16341 C 154.99008392680219 4.902302882911769 140.64227277156834 C 0.0 **** -0.24
16342 H 154.60709123795988 3.88346208317445 140.7042031927266 H 0.0 **** 0.06
16343 H 155.15683992919776 5.16473389641547 139.59774524822834 H 0.0 **** 0.06
16344 H 155.93036057426372 4.970714863609103 141.18966475049154 H 0.0 **** 0.06
16345 H 154.26468209319552 5.590296626682019 141.07854808175202 H 0.0 **** 0.06
16346 C 169.22825809550284 152.12998632265925 241.13176541145418 C 0.0 **** -0.24
16347 H 169.83463548528022 151.83438777186137 241.98827653834633 H 0.0 **** 0.06
16348 H 168.2361157635703 152.4261883091254 241.4740187260787 H 0.0 **** 0.06
16349 H 169.13985350400822 151.290495509209 240.4427907033397 H 0.0 **** 0.06
16350 H 169.7027738161994 152.96858826392912 240.62331683036712 H 0.0 **** 0.06
16351 C 142.72903033195968 9.065952151001056 5.395372835964437 C 0.0 **** -0.24
16352 H 143.42812567529236 8.858368162370994 6.206612595092253 H 0.0 **** 0.06
16353 H 142.48328935023594 8.13700070569655 4.880406881719111 H 0.0 **** 0.06
16354 H 143.18569536468067 9.76256328431623 4.692869225115828 H 0.0 **** 0.06
16355 H 141.81965320578493 9.506393884397824 5.805112601114914 H 0.0 **** 0.06
16356 C 258.5113390045103 90.94195707665386 1.800092201599341 C 0.0 **** -0.24
16357 H 259.42617661067555 90.88245307735528 2.390845774978743 H 0.0 **** 0.06
16358 H 257.67922663193133 91.21841418945797 2.447061142891698 H 0.0 **** 0.06
16359 H 258.31075913534113 89.97255363566143 1.3437019789168971 H 0.0 **** 0.06
16360 H 258.63173206972 91.69304537511277 1.0195973416875859 H 0.0 **** 0.06
16361 C 307.4570013551265 188.4864533780068 101.26521739377048 C 0.0 **** -0.24
16362 H 308.4408701583761 188.55444555376937 101.72997388301647 H 0.0 **** 0.06
16363 H 307.301198334919 187.4737387903062 100.89250311211364 H 0.0 **** 0.06
16364 H 307.3973172597364 189.19146005828804 100.43638463801304 H 0.0 **** 0.06
16365 H 306.69109477378754 188.7248232915726 102.00225825859744 H 0.0 **** 0.06
16366 C 280.84458609999933 208.47845887405862 4.7769248665517665 C 0.0 **** -0.24
16367 H 279.81471886381894 208.81635169828354 4.658923731336614 H 0.0 **** 0.06
16368 H 281.5176115517261 209.3327531646772 4.70142415134643 H 0.0 **** 0.06
16369 H 281.08204795590694 207.75785476737065 3.993590363533926 H 0.0 **** 0.06
16370 H 280.96239030134717 208.0068287721063 5.752175379996487 H 0.0 **** 0.06
16371 C 78.22500373167264 307.7618684756605 155.63673602254818 C 0.0 **** -0.24
16372 H 79.26709173295251 307.7040664968472 155.32430223216113 H 0.0 **** 0.06
16373 H 77.88877834616409 308.79790531431587 155.58900226391614 H 0.0 **** 0.06
16374 H 78.1317593342695 307.3952853128896 156.65849216389898 H 0.0 **** 0.06
16375 H 77.61304475509428 307.14983149148526 154.9745017068911 H 0.0 **** 0.06
16376 C 30.88216532839789 133.77802470974365 37.571999153234856 C 0.0 **** -0.24
16377 H 30.59243198972996 133.62040238443666 36.53319159448776 H 0.0 **** 0.06
16378 H 31.92517773971852 133.49054070745748 37.70550724025668 H 0.0 **** 0.06
16379 H 30.251238572703443 133.17048376903614 38.22095122018905 H 0.0 **** 0.06
16380 H 30.760542348852226 134.8309127070821 37.82770615112591 H 0.0 **** 0.06
16381 C 200.66686089219922 181.00654427567707 114.15851967650786 C 0.0 **** -0.24
16382 H 200.66710888660612 181.6459683332514 113.27599083204166 H 0.0 **** 0.06
16383 H 201.641012909258 181.05890795741732 114.64452301146025 H 0.0 **** 0.06
16384 H 200.46326484388555 179.97770038961096 113.85989572927329 H 0.0 **** 0.06
16385 H 199.89579284820758 181.3432716445417 114.85069891324125 H 0.0 **** 0.06
16386 C 217.67654604629058 201.97586088022723 184.85113295914948 C 0.0 **** -0.24
16387 H 216.704473399101 202.055878547337 185.33752301926694 H 0.0 **** 0.06
16388 H 217.84742647086858 202.85878791784364 184.23416854968144 H 0.0 **** 0.06
16389 H 217.69744312669485 201.08459228625202 184.22467469915875 H 0.0 **** 0.06
16390 H 218.4570785446612 201.9050603283883 185.60858635721024 H 0.0 **** 0.06
16391 C 290.8711261173369 0.9121735596515919 142.10923281180712 C 0.0 **** -0.24
16392 H 290.84396714366835 1.9680489949424071 141.84191876320702 H 0.0 **** 0.06
16393 H 291.8678485031336 0.6533919866102451 142.46803071844323 H 0.0 **** 0.06
16394 H 290.63252705090576 0.30943990757022277 141.23256070485945 H 0.0 **** 0.06
16395 H 290.14016177164 0.7178133494835066 142.89442106071888 H 0.0 **** 0.06
16396 C 46.7699810926284 139.85836749691836 162.38407141888382 C 0.0 **** -0.24
16397 H 45.98325252836278 139.19622802963335 162.02330440353217 H 0.0 **** 0.06
16398 H 46.330574014199016 140.80632696966686 162.69709476392325 H 0.0 **** 0.06
16399 H 47.48869103959703 140.03788156035318 161.58479045393875 H 0.0 **** 0.06
16400 H 47.275304353526394 139.39429013484866 163.23111802587982 H 0.0 **** 0.06
16401 C 70.29389878557402 170.1578631599097 249.31249110470196 C 0.0 **** -0.24
16402 H 70.25223876603877 170.86555806142638 248.48393529882753 H 0.0 **** 0.06
16403 H 69.46713198726098 169.45202216461973 249.2284881064893 H 0.0 **** 0.06
16404 H 70.21602429738198 170.6983892769644 250.25588997655086 H 0.0 **** 0.06
16405 H 71.23993518571956 169.6168713993698 249.28023591523544 H 0.0 **** 0.06
16406 C 260.0972904136444 136.1803475341063 69.42125669777147 C 0.0 **** -0.24
16407 H 259.4681682719205 136.61024188007121 70.20069978882418 H 0.0 **** 0.06
16408 H 259.9969771034007 136.76731264470484 68.50897574158643 H 0.0 **** 0.06
16409 H 259.7868632283906 135.15343346817747 69.22933011747958 H 0.0 **** 0.06
16410 H 261.13779631962854 136.19011640664058 69.7476037275602 H 0.0 **** 0.06
16411 C 93.44351027178413 189.87404162710237 194.30546793453243 C 0.0 **** -0.24
16412 H 93.2174614908458 188.9237811162622 194.7887662463129 H 0.0 **** 0.06
16413 H 93.36543660035946 189.75961177712088 193.2243066786641 H 0.0 **** 0.06
16414 H 94.45616582448642 190.18233050726064 194.56706314031584 H 0.0 **** 0.06
16415 H 92.73449779016937 190.63089059593426 194.64249062477893 H 0.0 **** 0.06
16416 C 217.2354324102903 251.77720568780802 18.285647936802093 C 0.0 **** -0.24
16417 H 217.87046533756546 252.57937035494422 18.661462222621253 H 0.0 **** 0.06
16418 H 217.68610192599527 251.34690949915472 17.390260570337603 H 0.0 **** 0.06
16419 H 216.25135896905232 252.17703168840768 18.041428812767947 H 0.0 **** 0.06
16420 H 217.13505735995489 251.006161782977 19.04950623246856 H 0.0 **** 0.06
16421 C 181.4703507943895 252.16561384704116 205.06429949360881 C 0.0 **** -0.24
16422 H 181.10296315226162 252.29652433890277 206.08240809094406 H 0.0 **** 0.06
16423 H 182.4156263135106 251.62288299626007 205.08696596259978 H 0.0 **** 0.06
16424 H 181.62300933230273 253.14205873366254 204.60474851342627 H 0.0 **** 0.06
16425 H 180.74029397174957 251.6008061383273 204.48438946725662 H 0.0 **** 0.06
16426 C 256.3152374339616 265.72314544751305 35.468096790783534 C 0.0 **** -0.24
16427 H 255.79194670186814 266.41751695738816 36.12566531738432 H 0.0 **** 0.06
16428 H 255.59264919597405 265.21010988498625 34.83225395898569 H 0.0 **** 0.06
16429 H 256.85542776771655 264.99167331102973 36.069753063219736 H 0.0 **** 0.06
16430 H 257.0209167952952 266.27467879752777 34.846145862838796 H 0.0 **** 0.06
16431 C 46.56756753024894 271.5821239913181 137.58609104023216 C 0.0 **** -0.24
16432 H 47.50408215294567 271.8020866643129 137.07522596376066 H 0.0 **** 0.06
16433 H 46.72281078002882 270.7715037027924 138.29802687369695 H 0.0 **** 0.06
16434 H 45.81590184439361 271.2844488945985 136.85408653923812 H 0.0 **** 0.06
16435 H 46.22586102838693 272.47159261289374 138.11557436245775 H 0.0 **** 0.06
16436 C 36.77436489003455 285.2256086162328 257.7193278911558 C 0.0 **** -0.24
16437 H 35.91271832455257 284.76818070729564 257.2336291657099 H 0.0 **** 0.06
16438 H 36.867154155079135 284.8391302972826 258.7336113846174 H 0.0 **** 0.06
16439 H 36.64057729185609 286.30675545885305 257.75189677228377 H 0.0 **** 0.06
16440 H 37.67665677149358 284.9884315342281 257.1557511511146 H 0.0 **** 0.06
16441 C 118.33815144192678 57.51021395492978 12.153642572996716 C 0.0 **** -0.24
16442 H 118.36435270229731 56.434962260463465 12.329220577150636 H 0.0 **** 0.06
16443 H 117.8725523886576 58.00559426976329 13.005554666156854 H 0.0 **** 0.06
16444 H 117.7622339245064 57.7172577538723 11.252175311091833 H 0.0 **** 0.06
16445 H 119.35524197767623 57.88260989904319 12.028909034702906 H 0.0 **** 0.06
16446 C 106.7123042432406 205.6853157525514 206.80063046475914 C 0.0 **** -0.24
16447 H 107.47063830617631 205.35589079338473 206.0903629130077 H 0.0 **** 0.06
16448 H 107.15743343795486 205.7737486628709 207.79206728773437 H 0.0 **** 0.06
16449 H 105.90139028210888 204.95715846737227 206.82971427547807 H 0.0 **** 0.06
16450 H 106.3205347228292 206.65408095568245 206.48988301738302 H 0.0 **** 0.06
16451 C 120.07324486868706 228.04206040117805 98.50096855902987 C 0.0 **** -0.24
16452 H 120.67438437447942 227.57214984027155 97.72200597125035 H 0.0 **** 0.06
16453 H 119.0907584118224 228.29104303668083 98.09932896758502 H 0.0 **** 0.06
16454 H 120.56725202006245 228.9508170830585 98.8433901896399 H 0.0 **** 0.06
16455 H 119.96053924955041 227.3526478430194 99.33757128259793 H 0.0 **** 0.06
16456 C 275.3707725583141 305.4583127135887 255.97844299205985 C 0.0 **** -0.24
16457 H 276.3012588090779 305.9620862407728 256.23815420786656 H 0.0 **** 0.06
16458 H 274.832958445389 306.04952786426765 255.23664721173287 H 0.0 **** 0.06
16459 H 274.7553656952668 305.34729011643583 256.87113483423843 H 0.0 **** 0.06
16460 H 275.5940268649358 304.4737456991506 255.5662965823999 H 0.0 **** 0.06
16461 C 190.31957226117083 105.32214824906944 152.85453790075087 C 0.0 **** -0.24
16462 H 190.58958116274636 106.32447869280702 153.1878774081565 H 0.0 **** 0.06
16463 H 190.4782874629244 105.24256502340432 151.77908899684144 H 0.0 **** 0.06
16464 H 189.26983008576326 105.13510712109533 153.08182259844233 H 0.0 **** 0.06
16465 H 190.94015191101522 104.58884143742588 153.3691361578284 H 0.0 **** 0.06
16466 C 302.48891605720104 219.94244979437588 108.59430797415982 C 0.0 **** -0.24
16467 H 301.5467864730658 220.3597670523444 108.95059789199419 H 0.0 **** 0.06
16468 H 302.3176596468235 218.93826676325176 108.20524109523777 H 0.0 **** 0.06
16469 H 303.20073892656893 219.8966844938947 109.41848580063052 H 0.0 **** 0.06
16470 H 302.8899806268415 220.57579292071125 107.8034015052437 H 0.0 **** 0.06
16471 C 117.9123374736009 96.87298042258416 33.02903311816749 C 0.0 **** -0.24
16472 H 117.6847114167953 97.02737713113501 31.974663457567885 H 0.0 **** 0.06
16473 H 118.60491312312885 96.0381615140133 33.132622239053944 H 0.0 **** 0.06
16474 H 116.99288864180804 96.65138501545192 33.570103970596165 H 0.0 **** 0.06
16475 H 118.36628944467833 97.77522505993241 33.43793722520343 H 0.0 **** 0.06
16476 C 200.96989448620792 48.19833155472355 60.08698268163138 C 0.0 **** -0.24
16477 H 201.27880056144772 48.897443442018385 59.30968611218651 H 0.0 **** 0.06
16478 H 200.1543862581383 47.57805531248809 59.713314286977806 H 0.0 **** 0.06
16479 H 200.6327096845232 48.75397852113099 60.96210393548745 H 0.0 **** 0.06
16480 H 201.81304834405137 47.565056537162434 60.361363202352095 H 0.0 **** 0.06
16481 C 2.3455977322159924 123.6451752949877 104.98387391806446 C 0.0 **** -0.24
16482 H 1.8606294546589766 123.16977856355172 105.83493152816214 H 0.0 **** 0.06
16483 H 2.460786598105699 122.91915164012633 104.17837250112507 H 0.0 **** 0.06
16484 H 3.326522324366863 124.01341322162608 105.2841340107112 H 0.0 **** 0.06
16485 H 1.7350993434806696 124.47900678640087 104.63698040098353 H 0.0 **** 0.06
16486 C 83.53729779722875 5.577314935483756 207.04092805400785 C 0.0 **** -0.24
16487 H 84.57094034461718 5.879098307399829 207.2107315628033 H 0.0 **** 0.06
16488 H 83.17008177610882 5.035089082026431 207.91187630992584 H 0.0 **** 0.06
16489 H 83.48660995780679 4.93365393184574 206.16351104990497 H 0.0 **** 0.06
16490 H 82.92240610450662 6.463237026595081 206.87858086411944 H 0.0 **** 0.06
16491 C 165.18176461073068 269.91775038637536 191.0467216284306 C 0.0 **** -0.24
16492 H 164.84714034188016 270.5471084415332 190.222416839819 H 0.0 **** 0.06
16493 H 165.44267258423622 268.92976551580773 190.66682259359538 H 0.0 **** 0.06
16494 H 164.3810146730247 269.82529855039303 191.78134775863322 H 0.0 **** 0.06
16495 H 166.05551675261125 270.3695259574694 191.51636551255365 H 0.0 **** 0.06
16496 C 135.46593271395827 157.7999615601791 246.5258582497242 C 0.0 **** -0.24
16497 H 134.97169049431406 157.64186066927596 247.4842658275689 H 0.0 **** 0.06
16498 H 136.1034360334808 158.68204600327545 246.58693937029886 H 0.0 **** 0.06
16499 H 134.71465871745838 157.94653208457277 245.75022250350085 H 0.0 **** 0.06
16500 H 136.07347398859304 156.9283821833522 246.28285755401848 H 0.0 **** 0.06
16501 C 2.5871965834152775 228.81387496422025 153.83316521780506 C 0.0 **** -0.24
16502 H 3.511986440609519 229.04266552046715 153.30348800335224 H 0.0 **** 0.06
16503 H 2.5661902445979763 229.35571483273668 154.7788282875573 H 0.0 **** 0.06
16504 H 2.5353082455026765 227.74213474067238 154.02690950018393 H 0.0 **** 0.06
16505 H 1.7353974340583136 229.11384754776324 153.22259989839398 H 0.0 **** 0.06
16506 C 255.13914630130785 14.78324005362532 236.4296065836391 C 0.0 **** -0.24
16507 H 255.56830233801972 13.840366381345802 236.0893365612731 H 0.0 **** 0.06
16508 H 255.92326611721342 15.538709910168848 236.48642879121616 H 0.0 **** 0.06
16509 H 254.69637238080261 14.644438877809193 237.41586052580806 H 0.0 **** 0.06
16510 H 254.37083642757756 15.108004162126065 235.7282560580622 H 0.0 **** 0.06
16511 C 23.565945801124542 98.05809664235079 215.63629783514284 C 0.0 **** -0.24
16512 H 22.6687666397018 98.52579002085707 216.04161598828478 H 0.0 **** 0.06
16513 H 23.790195202078962 97.15262536221445 216.19960353736434 H 0.0 **** 0.06
16514 H 24.40341994864906 98.751645893758 215.71306266289417 H 0.0 **** 0.06
16515 H 23.400508872328203 97.80410557841816 214.58866549606518 H 0.0 **** 0.06
16516 C 36.30467834555907 274.75102433711385 185.71992591916074 C 0.0 **** -0.24
16517 H 37.04931780301271 274.3200191386501 185.04982073890244 H 0.0 **** 0.06
16518 H 36.29864749175826 275.8348808714934 185.60680214064007 H 0.0 **** 0.06
16519 H 36.55246829418621 274.4939462703593 186.74985667389262 H 0.0 **** 0.06
16520 H 35.320403448640775 274.35291630490303 185.47302660248414 H 0.0 **** 0.06
16521 C 132.27891814315277 4.327657953180363 228.42408933132774 C 0.0 **** -0.24
16522 H 132.31792912307174 3.6049222551968114 229.2390725238444 H 0.0 **** 0.06
16523 H 131.30540378828633 4.273605811123659 227.93680756815837 H 0.0 **** 0.06
16524 H 133.0615397916445 4.099684108407985 227.69925787559524 H 0.0 **** 0.06
16525 H 132.4319252839226 5.3304900715245935 228.82111817283163 H 0.0 **** 0.06
16526 C 19.759328805084863 61.12880330713426 210.5455314160829 C 0.0 **** -0.24
16527 H 20.187372647491884 60.30945458389124 209.9692116417246 H 0.0 **** 0.06
16528 H 20.553120434952575 61.65100017489732 211.07880491572197 H 0.0 **** 0.06
16529 H 19.039411424107925 60.73190220629817 211.26173448338815 H 0.0 **** 0.06
16530 H 19.256772248926097 61.822145468719924 209.87133196224875 H 0.0 **** 0.06
16531 C 141.63367866427816 53.39952878847512 67.3220470040126 C 0.0 **** -0.24
16532 H 142.25334751857423 53.51386893946855 66.4335813697216 H 0.0 **** 0.06
16533 H 142.24276212700255 53.56284734541404 68.21210359897393 H 0.0 **** 0.06
16534 H 141.2166636651732 52.392190152571516 67.34714119261685 H 0.0 **** 0.06
16535 H 140.8234686934552 54.12762051694986 67.29803484692917 H 0.0 **** 0.06
16536 C 138.74872087585422 289.7710741350471 153.99438239241482 C 0.0 **** -0.24
16537 H 137.7300148039273 289.74123291977617 154.37882326352354 H 0.0 **** 0.06
16538 H 139.2930351632226 288.89149772978425 154.34159798044305 H 0.0 **** 0.06
16539 H 139.2468589776974 290.6717698691506 154.35441014149455 H 0.0 **** 0.06
16540 H 138.7270077517423 289.77880274546624 152.90567804851173 H 0.0 **** 0.06
16541 C 198.74470894450087 24.502032286616327 268.12243667073375 C 0.0 **** -0.24
16542 H 197.8690241501758 24.789578056628955 267.5399996149543 H 0.0 **** 0.06
16543 H 199.64813334433364 24.74157864211199 267.5618581784923 H 0.0 **** 0.06
16544 H 198.71363072266416 23.43101120759448 268.32085627484935 H 0.0 **** 0.06
16545 H 198.7472990277604 25.04705332258402 269.066535560152 H 0.0 **** 0.06
16546 C 259.4073157589055 113.11913025748962 269.52095638178054 C 0.0 **** -0.24
16547 H 258.53166957987037 112.52607599295345 269.7841459650822 H 0.0 **** 0.06
16548 H 259.6670851919726 112.94117704875947 268.47726924064835 H 0.0 **** 0.06
16549 H 260.2441014142736 112.83253804888864 270.15852208520346 H 0.0 **** 0.06
16550 H 259.18626677691975 114.17658972510776 269.6661155085446 H 0.0 **** 0.06
16551 C 118.4358699203946 234.52265843543285 301.41880599697765 C 0.0 **** -0.24
16552 H 118.84113997351295 234.20386429707975 300.4583999203528 H 0.0 **** 0.06
16553 H 119.21645919254613 235.019380581201 301.99439078192256 H 0.0 **** 0.06
16554 H 118.07526049692609 233.65311428143815 301.96733143217205 H 0.0 **** 0.06
16555 H 117.60999455122212 235.21464704373193 301.2509221233418 H 0.0 **** 0.06
16556 C 7.413751680176517 165.76432613663764 244.28646786235504 C 0.0 **** -0.24
16557 H 6.3699539013929325 165.9706154368232 244.52160243706015 H 0.0 **** 0.06
16558 H 7.70594434618107 164.81410109012023 244.73364809181487 H 0.0 **** 0.06
16559 H 8.04059473904806 166.56232227653982 244.68561607348863 H 0.0 **** 0.06
16560 H 7.538244187106727 165.7111915289094 243.20473976309927 H 0.0 **** 0.06
16561 C 300.8427404095278 210.58705683891398 163.96956335222194 C 0.0 **** -0.24
16562 H 300.8142824268338 211.2030335811093 164.86852283263283 H 0.0 **** 0.06
16563 H 300.4081497523896 211.14043666268225 163.1363862482226 H 0.0 **** 0.06
16564 H 300.2722390072433 209.6743600553666 164.13689557853337 H 0.0 **** 0.06
16565 H 301.87606846753573 210.33222895736176 163.73771163698206 H 0.0 **** 0.06
16566 C 169.31118095058497 43.997083982462016 241.38247243945665 C 0.0 **** -0.24
16567 H 169.31197338149843 44.686850132655564 240.53919527588474 H 0.0 **** 0.06
16568 H 168.31274808061602 43.955921959442406 241.8181292345659 H 0.0 **** 0.06
16569 H 170.02159644898495 44.34134751168119 242.1337059514744 H 0.0 **** 0.06
16570 H 169.59929205434332 43.00314060409107 241.03861940803796 H 0.0 **** 0.06
16571 C 1.9106853202649319 269.71799188432817 188.96302851035847 C 0.0 **** -0.24
16572 H 2.267792851012757 270.11288224307043 189.9144359774404 H 0.0 **** 0.06
16573 H 1.0428476484651839 269.08216108495526 189.1373366242895 H 0.0 **** 0.06
16574 H 2.7017968067521565 269.1335716583085 188.4932637125899 H 0.0 **** 0.06
16575 H 1.631456667986484 270.54430861557756 188.30947715933695 H 0.0 **** 0.06
16576 C 7.726905155487543 264.16167182143766 102.73167233358043 C 0.0 **** -0.24
16577 H 8.02171387415477 263.8373876326241 101.73439908738462 H 0.0 **** 0.06
16578 H 7.30531761890461 263.3183456933714 103.27852088674783 H 0.0 **** 0.06
16579 H 6.981600821234267 264.95255991681216 102.65075374916748 H 0.0 **** 0.06
16580 H 8.600866060599103 264.53863278414923 103.26420601811105 H 0.0 **** 0.06
16581 C 252.79899518525954 146.16632661301009 242.0878876894297 C 0.0 **** -0.24
16582 H 252.50248370931536 146.000950582544 241.0523921266692 H 0.0 **** 0.06
16583 H 252.59604902510466 145.26840845805066 242.67167463145967 H 0.0 **** 0.06
16584 H 252.23213233314553 147.00249217089137 242.49863824839562 H 0.0 **** 0.06
16585 H 253.86410209732634 146.3946910248467 242.12885489608723 H 0.0 **** 0.06
16586 C 22.182703290533766 177.03241670847592 299.15396804617023 C 0.0 **** -0.24
16587 H 22.268272067788132 176.1746422690054 298.48656161286414 H 0.0 **** 0.06
16588 H 23.17803010199745 177.3763418533522 299.4335165724834 H 0.0 **** 0.06
16589 H 21.632207861496397 176.7425678561981 300.0492343626599 H 0.0 **** 0.06
16590 H 21.64970521940242 177.83607245558306 298.6438672174277 H 0.0 **** 0.06
16591 C 299.64444193932025 172.97721481107686 234.2097042406362 C 0.0 **** -0.24
16592 H 299.08124958864977 173.71842065895225 234.77525053366753 H 0.0 **** 0.06
16593 H 300.10266680230666 172.26651658179014 234.89662879725051 H 0.0 **** 0.06
16594 H 300.4217054359409 173.47632291122602 233.63044703161128 H 0.0 **** 0.06
16595 H 298.97171762293897 172.44780770539455 233.53408788065116 H 0.0 **** 0.06
16596 C 50.95021574973066 206.93822828197142 25.03270000755802 C 0.0 **** -0.24
16597 H 51.65749007815148 207.74922773700953 25.20459315906001 H 0.0 **** 0.06
16598 H 50.60298976114868 206.9718002095704 24.000474070888345 H 0.0 **** 0.06
16599 H 50.10040792097834 207.04910198241492 25.7057691153899 H 0.0 **** 0.06
16600 H 51.44001760529363 205.98347652642263 25.221195557860767 H 0.0 **** 0.06
16601 C 88.87855669068665 219.27811856081638 232.98028938344146 C 0.0 **** -0.24
16602 H 88.64477554413611 220.2090261502924 233.4952503312539 H 0.0 **** 0.06
16603 H 89.67320780778616 219.4542611356062 232.25483866257184 H 0.0 **** 0.06
16604 H 87.98978605098227 218.91415527756988 232.46445527247906 H 0.0 **** 0.06
16605 H 89.20769700553322 218.5343832525432 233.70640631417552 H 0.0 **** 0.06
16606 C 177.7068537511177 284.4841093783804 203.47456387638425 C 0.0 **** -0.24
16607 H 177.13029072414997 283.9701750183013 202.7047262932781 H 0.0 **** 0.06
16608 H 177.0257626159609 284.9423102736855 204.19260437733516 H 0.0 **** 0.06
16609 H 178.32132128516548 285.2565763597925 203.0120600790549 H 0.0 **** 0.06
16610 H 178.3480237280209 283.7683417845652 203.9868647179515 H 0.0 **** 0.06
16611 C 64.2792895118697 289.45944484696275 143.2082127792149 C 0.0 **** -0.24
16612 H 64.42899346837524 288.562228549211 142.60736172290126 H 0.0 **** 0.06
16613 H 64.72962237974079 289.3169835763267 144.1907607150401 H 0.0 **** 0.06
16614 H 63.211477027508664 289.64705358779645 143.32116325016864 H 0.0 **** 0.06
16615 H 64.74764353340689 290.30992808671004 142.71317629801294 H 0.0 **** 0.06
16616 C 58.238066593806764 311.3191024987444 151.35142590482803 C 0.0 **** -0.24
16617 H 57.46161173334454 311.7167781949448 152.00388757733998 H 0.0 **** 0.06
16618 H 57.909146731188656 310.3668131776413 150.93276239695354 H 0.0 **** 0.06
16619 H 59.15306835833991 311.16687114993806 151.92532549949783 H 0.0 **** 0.06
16620 H 58.4298281907507 312.0249161562138 150.54363823597913 H 0.0 **** 0.06
16621 C 151.69905729046917 41.69317166750673 61.71706937712406 C 0.0 **** -0.24
16622 H 151.80269947940565 41.08960108076249 62.61814938932963 H 0.0 **** 0.06
16623 H 150.73392813290246 42.19996835158676 61.72830243978041 H 0.0 **** 0.06
16624 H 151.76179371964037 41.04994686952057 60.83869510913618 H 0.0 **** 0.06
16625 H 152.4983798950285 42.4340499465749 61.68218236545488 H 0.0 **** 0.06
16626 C 18.472846772091998 6.935920451174354 172.3868530686292 C 0.0 **** -0.24
16627 H 18.179989758593607 7.7346460187069965 171.706007576873 H 0.0 **** 0.06
16628 H 19.330251560696155 6.403129608634913 171.97395925325333 H 0.0 **** 0.06
16629 H 17.640544138366238 6.243170093394383 172.5129110692343 H 0.0 **** 0.06
16630 H 18.740274619199724 7.361991668452845 173.35337725890122 H 0.0 **** 0.06
16631 C 303.89192836233366 241.12786971007017 60.90892819155792 C 0.0 **** -0.24
16632 H 303.6030139913561 241.17873363133236 61.958757557759014 H 0.0 **** 0.06
16633 H 303.34157885488565 240.32536637408865 60.41890455901145 H 0.0 **** 0.06
16634 H 304.96259159516916 240.93213708169182 60.83646207535085 H 0.0 **** 0.06
16635 H 303.6633291935841 242.07612022771875 60.42221089497454 H 0.0 **** 0.06
16636 C 222.15393650322434 76.43561852257852 158.52958252309998 C 0.0 **** -0.24
16637 H 221.9146214593117 75.75911093534296 157.70876333064388 H 0.0 **** 0.06
16638 H 223.217924636279 76.36592944365725 158.75912346009437 H 0.0 **** 0.06
16639 H 221.57325173737695 76.15879665796703 159.4085257522732 H 0.0 **** 0.06
16640 H 221.91143308371198 77.4582384617031 158.24029390904218 H 0.0 **** 0.06
16641 C 118.18696693613538 227.38593255235685 309.28353138148384 C 0.0 **** -0.24
16642 H 117.1863929581506 227.59748869110342 309.66294549902716 H 0.0 **** 0.06
16643 H 118.6998178240631 228.32375075319518 309.0706644332537 H 0.0 **** 0.06
16644 H 118.11092741419046 226.79618107648173 308.3698347473522 H 0.0 **** 0.06
16645 H 118.74752325940207 226.82576185569494 310.0313286434432 H 0.0 **** 0.06
16646 C 194.5833090147495 21.78069129584594 57.070144361760896 C 0.0 **** -0.24
16647 H 194.30587758964293 22.394459294232547 56.21333108155514 H 0.0 **** 0.06
16648 H 195.40439043808783 21.119610434691083 56.7933777816732 H 0.0 **** 0.06
16649 H 193.72484897059508 21.18379844096671 57.381567918766706 H 0.0 **** 0.06
16650 H 194.89512568947293 22.424817702134135 57.89248363799334 H 0.0 **** 0.06
16651 C 297.98067693076655 169.04404355612485 285.0697164455623 C 0.0 **** -0.24
16652 H 297.5021622663637 170.00652771975388 284.893060583198 H 0.0 **** 0.06
16653 H 297.74440317250776 168.70083762206497 286.07740427033445 H 0.0 **** 0.06
16654 H 299.0597982170711 169.15028057570544 284.9659942779516 H 0.0 **** 0.06
16655 H 297.61546867509264 168.317800295932 284.3432455176909 H 0.0 **** 0.06
16656 C 142.65291792574885 253.11988303475275 70.02249185685514 C 0.0 **** -0.24
16657 H 143.22166456601053 252.66788325126473 70.83539271614194 H 0.0 **** 0.06
16658 H 141.91822611966188 253.81144819284918 70.43422105141588 H 0.0 **** 0.06
16659 H 142.14320607405614 252.338692206239 69.45937280778537 H 0.0 **** 0.06
16660 H 143.33126635809802 253.6605313102919 69.36265460778816 H 0.0 **** 0.06
16661 C 55.0059092029027 82.83188046290593 116.36902423329505 C 0.0 **** -0.24
16662 H 55.67287676497571 83.18005205113673 115.57989169096089 H 0.0 **** 0.06
16663 H 54.32053035391215 82.08802992857997 115.96254967483262 H 0.0 **** 0.06
16664 H 54.43709255405642 83.67551118753042 116.76136741896428 H 0.0 **** 0.06
16665 H 55.59423902871822 82.38635276686884 117.17058236197184 H 0.0 **** 0.06
16666 C 168.2908327406115 190.3907942760552 278.0977343012331 C 0.0 **** -0.24
16667 H 169.07786609573532 190.36351632962737 278.85036485789414 H 0.0 **** 0.06
16668 H 167.7620600430413 189.43694303738755 278.09076257641044 H 0.0 **** 0.06
16669 H 168.73119698600107 190.56953378343889 277.11695763530787 H 0.0 **** 0.06
16670 H 167.59048502053832 191.192883339734 278.33424553219584 H 0.0 **** 0.06
16671 C 47.79971318568903 123.7847292663449 27.728657153696787 C 0.0 **** -0.24
16672 H 48.19838152625135 124.78636704306274 27.893910519243917 H 0.0 **** 0.06
16673 H 48.436325004458695 123.05364174027162 28.229718810212006 H 0.0 **** 0.06
16674 H 47.77742154289649 123.57527430977188 26.659512144456187 H 0.0 **** 0.06
16675 H 46.78935623293046 123.72468059736181 28.132476831997053 H 0.0 **** 0.06
16676 C 250.51744651975432 4.318151240882457 22.936961489407082 C 0.0 **** -0.24
16677 H 250.39770887868713 4.5462935262595465 21.878419879717086 H 0.0 **** 0.06
16678 H 251.4194426886835 4.800638662400274 23.313186353693908 H 0.0 **** 0.06
16679 H 250.60116972753883 3.239154182564107 23.06871172588083 H 0.0 **** 0.06
16680 H 249.65129102510872 4.685017078673127 23.488373739507807 H 0.0 **** 0.06
16681 C 273.8587667874687 246.76677931431175 91.64507888674396 C 0.0 **** -0.24
16682 H 273.7289898716035 247.79050784474546 91.29525007982087 H 0.0 **** 0.06
16683 H 273.0830348061455 246.1337427484791 91.21271682157018 H 0.0 **** 0.06
16684 H 273.7844962530638 246.7425040298117 92.73239666430814 H 0.0 **** 0.06
16685 H 274.8393221183871 246.39992776423037 91.33949495519391 H 0.0 **** 0.06
16686 C 150.13954186859638 188.01249380942272 190.22605059560323 C 0.0 **** -0.24
16687 H 149.26434488934137 188.59780010225154 189.94313339351288 H 0.0 **** 0.06
16688 H 150.83347863749805 188.64231007771315 190.78273235293364 H 0.0 **** 0.06
16689 H 150.63069341241504 187.63715161759887 189.32782414660795 H 0.0 **** 0.06
16690 H 149.83079115927478 187.17347235561857 190.848038007622 H 0.0 **** 0.06
16691 C 3.6215975133977025 238.3660585714989 260.6116615214078 C 0.0 **** -0.24
16692 H 4.36609762743015 237.78280404174785 261.15312904734986 H 0.0 **** 0.06
16693 H 3.017557177695096 238.93284150960164 261.3220513691916 H 0.0 **** 0.06
16694 H 2.9782129285224954 237.69525209974648 260.0425031056057 H 0.0 **** 0.06
16695 H 4.122911544042708 239.05312851396417 259.93127818925234 H 0.0 **** 0.06
16696 C 190.45382987479456 201.57892967801553 5.103820158733129 C 0.0 **** -0.24
16697 H 191.3947751690584 201.72291350918363 4.572662027741728 H 0.0 **** 0.06
16698 H 190.6097338582228 201.74945936866243 6.169315313597622 H 0.0 **** 0.06
16699 H 190.10053161539037 200.55901652660884 4.947289459112426 H 0.0 **** 0.06
16700 H 189.71251111124786 202.2827961190871 4.727304730394167 H 0.0 **** 0.06
16701 C 12.923876241189873 240.3332857891547 87.52489807161936 C 0.0 **** -0.24
16702 H 12.010972911942474 239.738379577265 87.55181386848255 H 0.0 **** 0.06
16703 H 13.294444638424636 240.38350758271582 86.50065191562942 H 0.0 **** 0.06
16704 H 13.677832817713465 239.8708895968833 88.1617478112297 H 0.0 **** 0.06
16705 H 12.712878929751696 241.34057446863432 87.88462575019616 H 0.0 **** 0.06
16706 C 240.33773261515543 293.95909614375887 155.04441563646043 C 0.0 **** -0.24
16707 H 241.1253905068606 294.6913261213412 154.86411960246983 H 0.0 **** 0.06
16708 H 240.26642141006346 293.2860307053749 154.1893899161247 H 0.0 **** 0.06
16709 H 239.38743696490073 294.4740703012161 155.18121526774462 H 0.0 **** 0.06
16710 H 240.5737514850981 293.38526430991465 155.94036455670232 H 0.0 **** 0.06
16711 C 289.18476579592385 152.05477809466714 149.07342225755013 C 0.0 **** -0.24
16712 H 288.26554678334674 152.4836467008679 149.47223985341964 H 0.0 **** 0.06
16713 H 289.5848699533992 152.7103492576323 148.2993683398442 H 0.0 **** 0.06
16714 H 288.9737036585665 151.07496579327358 148.64715125223128 H 0.0 **** 0.06
16715 H 289.91500216815626 151.9523552587769 149.87599546430675 H 0.0 **** 0.06
16716 C 124.50786459625596 260.1605547090499 311.06370284727296 C 0.0 **** -0.24
16717 H 125.18279368431425 260.9634855130117 311.36064089033954 H 0.0 **** 0.06
16718 H 124.23600881120876 260.2843301813299 310.01503444483495 H 0.0 **** 0.06
16719 H 123.60912832416028 260.195868644959 311.6793020580776 H 0.0 **** 0.06
16720 H 125.00412297829621 259.1996954419178 311.1992883777665 H 0.0 **** 0.06
16721 C 202.28999184353256 105.5720303166969 246.45857509901302 C 0.0 **** -0.24
16722 H 203.17526988341592 105.2026234978849 245.9398297380327 H 0.0 **** 0.06
16723 H 202.09401841131552 104.94826305215346 247.33073458197467 H 0.0 **** 0.06
16724 H 201.4335407184281 105.53836435591705 245.785797706712 H 0.0 **** 0.06
16725 H 202.46028814734973 106.60061928979184 246.77779641230387 H 0.0 **** 0.06
16726 C 86.04301493472025 85.96986060537549 282.0967496615305 C 0.0 **** -0.24
16727 H 85.00185757159883 86.28769813306411 282.1391995782394 H 0.0 **** 0.06
16728 H 86.08931157688716 84.9121073484855 281.8346523026936 H 0.0 **** 0.06
16729 H 86.51003189259046 86.12443616528299 283.0688704885866 H 0.0 **** 0.06
16730 H 86.57023964217984 86.55408452566351 281.34218563428294 H 0.0 **** 0.06
16731 C 148.9080399144687 313.4035876260212 310.4334914208605 C 0.0 **** -0.24
16732 H 149.53127675254416 313.2385377094017 309.55476010958046 H 0.0 **** 0.06
16733 H 149.27787882412667 314.26922657927196 310.98351663471635 H 0.0 **** 0.06
16734 H 148.9430892252385 312.5224632650429 311.0742587395083 H 0.0 **** 0.06
16735 H 147.8790321461953 313.5836943734876 310.1196874537201 H 0.0 **** 0.06
16736 C 156.82864484462738 235.63691513830616 258.2494708646443 C 0.0 **** -0.24
16737 H 155.948118154722 235.00167193548688 258.1589768491523 H 0.0 **** 0.06
16738 H 156.52747415279248 236.62831598163186 258.58974713162445 H 0.0 **** 0.06
16739 H 157.31956090778266 235.71959743490038 257.2799893511397 H 0.0 **** 0.06
16740 H 157.520170652047 235.20002266723043 258.970455871377 H 0.0 **** 0.06
16741 C 187.3459012620471 153.344052359928 34.378990175519306 C 0.0 **** -0.24
16742 H 186.52545138327002 153.37856760143382 33.662352161215495 H 0.0 **** 0.06
16743 H 188.17255898252944 152.7714292195481 33.95681235933563 H 0.0 **** 0.06
16744 H 187.00561666452796 152.86800230539654 35.29768168010523 H 0.0 **** 0.06
16745 H 187.68019625062544 154.3578417200622 34.59691984063258 H 0.0 **** 0.06
16746 C 153.85615950290753 248.15107374697803 301.33124170800045 C 0.0 **** -0.24
16747 H 154.78661157857243 247.63406609395503 301.0970593633567 H 0.0 **** 0.06
16748 H 154.0026836829271 249.22634725156405 301.2241067010718 H 0.0 **** 0.06
16749 H 153.5613884381102 247.9239916535669 302.35557861080133 H 0.0 **** 0.06
16750 H 153.07460366891746 247.8209904175771 300.6463871050836 H 0.0 **** 0.06
16751 C 82.44055853099232 146.92995065118805 52.03219438011456 C 0.0 **** -0.24
16752 H 83.01209082155967 147.8196381107201 52.29401380072193 H 0.0 **** 0.06
16753 H 81.40813198864345 147.21046900517925 51.82097117433989 H 0.0 **** 0.06
16754 H 82.46258051540161 146.2258943089511 52.86512358324376 H 0.0 **** 0.06
16755 H 82.87839787675955 146.4629535165937 51.15072190318733 H 0.0 **** 0.06
16756 C 61.37688635779881 270.75637073633203 252.91374465865314 C 0.0 **** -0.24
16757 H 60.86982246833679 271.1067618688422 253.81199218024824 H 0.0 **** 0.06
16758 H 62.45103010997113 270.90995661178397 253.019777346001 H 0.0 **** 0.06
16759 H 61.01398244971608 271.3145849669809 252.0510141248787 H 0.0 **** 0.06
16760 H 61.17361630133081 269.6951990651395 252.77182103187067 H 0.0 **** 0.06
16761 C 215.2742437179125 306.4311309012487 272.16446105933977 C 0.0 **** -0.24
16762 H 216.14644470546244 305.8573084712542 271.85185491030643 H 0.0 **** 0.06
16763 H 214.36808704718283 305.9126030456147 271.85018044596836 H 0.0 **** 0.06
16764 H 215.30635008735862 307.41919195733755 271.70569654580095 H 0.0 **** 0.06
16765 H 215.276643783338 306.53304890188406 273.2503843151999 H 0.0 **** 0.06
16766 C 112.45841761856278 159.9360599920101 82.759024768178 C 0.0 **** -0.24
16767 H 113.1356566973115 160.78960684560275 82.76672834266799 H 0.0 **** 0.06
16768 H 112.21776300628241 159.6539977070754 83.7846916639528 H 0.0 **** 0.06
16769 H 112.93789084907638 159.09754428700086 82.25414935511674 H 0.0 **** 0.06
16770 H 111.54279254439007 160.20301106022725 82.23187374802922 H 0.0 **** 0.06
16771 C 210.607375337814 160.89724313404537 201.9665923638463 C 0.0 **** -0.24
16772 H 209.88983349135503 161.66503965470758 201.67894058310713 H 0.0 **** 0.06
16773 H 211.61742480778003 161.24489391883577 201.7517008886536 H 0.0 **** 0.06
16774 H 210.40956992546637 159.9851388369716 201.4024273829814 H 0.0 **** 0.06
16775 H 210.51123843263179 160.69199532943952 203.0327407511885 H 0.0 **** 0.06
16776 C 74.86737966871289 25.96070055025504 79.50881354686902 C 0.0 **** -0.24
16777 H 75.80911303667477 25.93231057274346 78.96190988369645 H 0.0 **** 0.06
16778 H 74.04970663663269 26.149201883629814 78.8135032510254 H 0.0 **** 0.06
16779 H 74.90284508351525 26.756867495392186 80.25219416821835 H 0.0 **** 0.06
16780 H 74.70722580911206 25.00500509689323 80.00816241564235 H 0.0 **** 0.06
16781 C 251.98329248851726 225.0080353202275 46.134728758098845 C 0.0 **** -0.24
16782 H 252.27218178305571 224.31184771223718 45.34815572639778 H 0.0 **** 0.06
16783 H 252.85056862042313 225.23292536993992 46.75736503791305 H 0.0 **** 0.06
16784 H 251.20226162474125 224.55984060155225 46.74863480336779 H 0.0 **** 0.06
16785 H 251.6093786903112 225.9291724010181 45.68610273739253 H 0.0 **** 0.06
16786 C 98.29034929468682 166.6869867582721 124.83708160926426 C 0.0 **** -0.24
16787 H 97.46658876930124 167.28902788859773 125.22039274075306 H 0.0 **** 0.06
16788 H 97.89207353558459 165.84879192146747 124.26441662004623 H 0.0 **** 0.06
16789 H 98.8829166020216 166.30949244119233 125.67056608892548 H 0.0 **** 0.06
16790 H 98.9196038042868 167.30201574378486 124.1927342922562 H 0.0 **** 0.06
16791 C 38.507074703614535 215.41583408372685 213.2174303994962 C 0.0 **** -0.24
16792 H 38.73666812644291 215.2331834404465 214.26704030373764 H 0.0 **** 0.06
16793 H 39.4346175598489 215.55708510142568 212.6628587191921 H 0.0 **** 0.06
16794 H 37.891144142672374 216.31150569306527 213.13117342019424 H 0.0 **** 0.06
16795 H 37.96554371467698 214.56202556695337 212.81056733505648 H 0.0 **** 0.06
16796 C 188.55750589477816 313.4273871876187 91.85099082399282 C 0.0 **** -0.24
16797 H 189.40954335917831 313.45716289640995 91.17153006850214 H 0.0 **** 0.06
16798 H 188.70109891846198 312.62640909572707 92.57772702085671 H 0.0 **** 0.06
16799 H 187.64576848447086 313.2432890977745 91.28194500702278 H 0.0 **** 0.06
16800 H 188.47396362151545 314.38090102212993 92.37193362644257 H 0.0 **** 0.06
16801 C 32.77348571888888 163.02479073071288 168.02016405829505 C 0.0 **** -0.24
16802 H 33.59250225563463 162.3199728761162 167.87349075235898 H 0.0 **** 0.06
16803 H 31.881677693280608 162.6545188973193 167.51447189402938 H 0.0 **** 0.06
16804 H 33.05121861936536 163.99356592884692 167.60620705986798 H 0.0 **** 0.06
16805 H 32.5705114550139 163.12886871001035 169.08612821027555 H 0.0 **** 0.06
16806 C 184.70692004275134 170.88482487874876 251.77445255693277 C 0.0 **** -0.24
16807 H 185.74221923194642 170.54820334777077 251.71759409251038 H 0.0 **** 0.06
16808 H 184.15868788879402 170.52038195749032 250.90476340567773 H 0.0 **** 0.06
16809 H 184.67912026045923 171.97421742416304 251.79113796381705 H 0.0 **** 0.06
16810 H 184.2484639313385 170.49518346376595 252.68241285556283 H 0.0 **** 0.06
16811 C 3.7005332414491363 16.761209478981172 161.07997010579015 C 0.0 **** -0.24
16812 H 4.289298441965386 16.09779815012685 161.71374080470258 H 0.0 **** 0.06
16813 H 3.331349688717893 17.59671160898226 161.67341853494673 H 0.0 **** 0.06
16814 H 2.8580108721338178 16.210823416008765 160.66226496460126 H 0.0 **** 0.06
16815 H 4.325738304357898 17.137600721615627 160.26995861557526 H 0.0 **** 0.06
16816 C 75.80187109665746 109.84578743678043 42.50907628474795 C 0.0 **** -0.24
16817 H 74.90397551344233 109.62650797877913 43.08701260634308 H 0.0 **** 0.06
16818 H 75.73611017524291 109.35735004699862 41.53730225569748 H 0.0 **** 0.06
16819 H 76.6763194720138 109.47572190819949 43.043830331892906 H 0.0 **** 0.06
16820 H 75.88972314205887 110.9233919052856 42.36992895829789 H 0.0 **** 0.06
16821 C 274.11022726367327 299.3116972167399 139.55748113071343 C 0.0 **** -0.24
16822 H 273.3468364075328 298.9404582165191 138.87321045429567 H 0.0 **** 0.06
16823 H 273.85206446381295 300.3226115451929 139.8733094706749 H 0.0 **** 0.06
16824 H 275.07522630774105 299.3230569993532 139.05222659721784 H 0.0 **** 0.06
16825 H 274.1631089256066 298.6598973505378 140.42946783573345 H 0.0 **** 0.06
16826 C 214.66623660026465 78.23323613527282 84.35459100661274 C 0.0 **** -0.24
16827 H 213.75823608184783 78.75952234322665 84.05976862451777 H 0.0 **** 0.06
16828 H 215.2940068142949 78.07265010719556 83.47834102282951 H 0.0 **** 0.06
16829 H 214.4013052258137 77.27062259609556 84.79331745479274 H 0.0 **** 0.06
16830 H 215.2094027815634 78.82938627223393 85.08813505128705 H 0.0 **** 0.06
16831 C 147.23298407165333 295.94333606429893 199.31960617322 C 0.0 **** -0.24
16832 H 147.70797779274858 296.8248234774202 199.75005623371163 H 0.0 **** 0.06
16833 H 147.67378907499565 295.7316485625431 198.34484378890107 H 0.0 **** 0.06
16834 H 146.16454357579886 296.12742516280747 199.20329424549107 H 0.0 **** 0.06
16835 H 147.3844672554042 295.0897450202124 199.9809846793853 H 0.0 **** 0.06
16836 C 92.19010674753505 126.61302776885188 121.05386619826115 C 0.0 **** -0.24
16837 H 91.3121920315501 126.28842534512123 120.49590709148828 H 0.0 **** 0.06
16838 H 92.82974182035463 125.75455422887376 121.2558278265374 H 0.0 **** 0.06
16839 H 91.8748843018495 127.06178662338027 121.99545668607266 H 0.0 **** 0.06
16840 H 92.74175074927632 127.34798439990189 120.4672061619616 H 0.0 **** 0.06
16841 C 114.48768687279565 155.63420557030213 62.46446926165285 C 0.0 **** -0.24
16842 H 113.39929084827003 155.6737714581779 62.51765749623439 H 0.0 **** 0.06
16843 H 114.89423123462595 156.63594249149742 62.60948022706057 H 0.0 **** 0.06
16844 H 114.78937673844567 155.25754794611294 61.48743108108175 H 0.0 **** 0.06
16845 H 114.86627711326608 154.97225663224555 63.24279784237223 H 0.0 **** 0.06
16846 C 6.527151037318447 312.83728105019634 81.47089405005593 C 0.0 **** -0.24
16847 H 7.104334965068233 312.17118464839734 82.11164801516023 H 0.0 **** 0.06
16848 H 7.075910205135017 313.01572800923844 80.54588085509076 H 0.0 **** 0.06
16849 H 6.363964336308186 313.78445932607906 81.98490257499026 H 0.0 **** 0.06
16850 H 5.565524021506633 312.37848435104587 81.24071059775298 H 0.0 **** 0.06
16851 C 157.06832138403746 177.87357623413226 285.2074952332248 C 0.0 **** -0.24
16852 H 157.21616132269747 178.55689426276416 286.0439461736281 H 0.0 **** 0.06
16853 H 157.91765129196966 177.19263412227315 285.14174644295963 H 0.0 **** 0.06
16854 H 156.98750705395526 178.44334300445882 284.2826351279376 H 0.0 **** 0.06
16855 H 156.15443162756236 177.30095534118317 285.3632937331435 H 0.0 **** 0.06
16856 C 254.4291474870514 78.67947878548017 93.29447557321038 C 0.0 **** -0.24
16857 H 253.36044753400475 78.69274572996164 93.51204109291339 H 0.0 **** 0.06
16858 H 254.62249500394023 79.26383071626555 92.3951425388978 H 0.0 **** 0.06
16859 H 254.75527536738537 77.65150714774842 93.13817373385606 H 0.0 **** 0.06
16860 H 254.97534013657875 79.11055770609372 94.13307434532868 H 0.0 **** 0.06
16861 C 9.338834625537658 266.54929425316624 198.13260472417608 C 0.0 **** -0.24
16862 H 9.05462784590516 266.4293393961269 197.08781733790795 H 0.0 **** 0.06
16863 H 8.478096432477074 266.34552107429215 198.76957929560365 H 0.0 **** 0.06
16864 H 9.682151601233173 267.5694562800921 198.30089387304537 H 0.0 **** 0.06
16865 H 10.141823381031415 265.85124865139426 198.37287073076305 H 0.0 **** 0.06
16866 C 207.1348246511443 25.360576876394305 186.5945098334716 C 0.0 **** -0.24
16867 H 207.58374210465175 26.208800080118806 187.11040309983235 H 0.0 **** 0.06
16868 H 207.00514662444 25.604865160912027 185.53993115184016 H 0.0 **** 0.06
16869 H 206.16511895188796 25.136931042163724 187.03887426304385 H 0.0 **** 0.06
16870 H 207.78667830998938 24.491467571029602 186.68895652527107 H 0.0 **** 0.06
16871 C 289.41024060528287 29.406252889550217 288.27480892225356 C 0.0 **** -0.24
16872 H 290.15994289813653 28.822837827147282 288.8093336524363 H 0.0 **** 0.06
16873 H 289.780997215743 30.420863180411402 288.1229245853399 H 0.0 **** 0.06
16874 H 288.4906126208724 29.439943861541053 288.8586270761331 H 0.0 **** 0.06
16875 H 289.2107263317079 28.94423192382135 287.30858895445624 H 0.0 **** 0.06
16876 C 239.1312013293009 269.7059583487738 153.19987208112695 C 0.0 **** -0.24
16877 H 238.5225677389658 270.1901746489183 152.4374423671453 H 0.0 **** 0.06
16878 H 239.69199326452437 270.4613980267484 153.75250818150664 H 0.0 **** 0.06
16879 H 239.8262669355295 269.013272519477 152.72472105507893 H 0.0 **** 0.06
16880 H 238.48563845897823 269.15822992701544 153.88644946685866 H 0.0 **** 0.06
16881 C 261.78519788793795 93.65441772948898 114.2932103269772 C 0.0 **** -0.24
16882 H 261.7235488794485 93.87409650485557 113.22707760164215 H 0.0 **** 0.06
16883 H 261.0029957122443 92.945012700044 114.56302620781364 H 0.0 **** 0.06
16884 H 261.6547553811258 94.5748418590664 114.86135073127201 H 0.0 **** 0.06
16885 H 262.7604217628522 93.22333756254159 114.51856034689172 H 0.0 **** 0.06
16886 C 128.80839573046728 265.00599468309304 72.92467067820567 C 0.0 **** -0.24
16887 H 128.7643530572113 265.7847546558858 73.68638551983847 H 0.0 **** 0.06
16888 H 127.82289090988056 264.8797174394324 72.4767637070033 H 0.0 **** 0.06
16889 H 129.12332996338418 264.0678875042346 73.38217007907679 H 0.0 **** 0.06
16890 H 129.52503862281733 265.29232836240925 72.15397790847905 H 0.0 **** 0.06
16891 C 309.2877893548318 101.03727406915843 64.76881760314163 C 0.0 **** -0.24
16892 H 308.70410253428633 101.59809816940734 64.04013703840269 H 0.0 **** 0.06
16893 H 309.4256386452437 101.6405367084893 65.66635930852021 H 0.0 **** 0.06
16894 H 310.2617890298866 100.79219840588041 64.34337558644654 H 0.0 **** 0.06
16895 H 308.761640995255 100.11778605939736 65.02624537091157 H 0.0 **** 0.06
16896 C 197.92353040845165 224.1820088878638 148.15417683204686 C 0.0 **** -0.24
16897 H 197.30309194970016 223.33006898114314 147.87511077082522 H 0.0 **** 0.06
16898 H 197.28900536166373 225.05417726654645 148.31678876749615 H 0.0 **** 0.06
16899 H 198.63341270070384 224.39209271461567 147.35433293130995 H 0.0 **** 0.06
16900 H 198.46605294916304 223.9505709854203 149.07090642189684 H 0.0 **** 0.06
16901 C 236.66467815731238 83.28991477476154 105.53689695601122 C 0.0 **** -0.24
16902 H 236.5145260835106 82.60190857804571 106.36865724374314 H 0.0 **** 0.06
16903 H 237.1710854459135 84.18696680678659 105.89402951193128 H 0.0 **** 0.06
16904 H 235.69822027352745 83.56277300882289 105.11196649438182 H 0.0 **** 0.06
16905 H 237.27385470106466 82.80916160269976 104.77214557722115 H 0.0 **** 0.06
16906 C 125.39801599306506 206.95381433598288 152.33656571211122 C 0.0 **** -0.24
16907 H 124.81042479930167 207.65437389169188 152.92929688607836 H 0.0 **** 0.06
16908 H 126.25633789764069 206.61721728525657 152.91685725731043 H 0.0 **** 0.06
16909 H 125.74363962867494 207.44789263311918 151.428353572702 H 0.0 **** 0.06
16910 H 124.78033213382835 206.0961760962689 152.07072055384344 H 0.0 **** 0.06
16911 C 156.95410417183888 79.23024710301596 285.4591361961832 C 0.0 **** -0.24
16912 H 156.03349875246806 78.64876680665125 285.51103684857685 H 0.0 **** 0.06
16913 H 156.77193523508168 80.15007094647146 284.9018589463658 H 0.0 **** 0.06
16914 H 157.7246635879771 78.64630845370542 284.95635971760896 H 0.0 **** 0.06
16915 H 157.28578965241536 79.47626622134536 286.468024042602 H 0.0 **** 0.06
16916 C 233.25633566692107 250.6894910918817 172.93189846431585 C 0.0 **** -0.24
16917 H 233.02891816251673 249.70175382592245 173.33196310769614 H 0.0 **** 0.06
16918 H 232.71537721987008 251.44633089396183 173.50136560985243 H 0.0 **** 0.06
16919 H 232.95283615558662 250.73615427197504 171.8855677571948 H 0.0 **** 0.06
16920 H 234.32758511167472 250.87443917676325 173.00764924206186 H 0.0 **** 0.06
16921 C 252.61832323409266 79.77826903124767 108.24187051408816 C 0.0 **** -0.24
16922 H 251.8423065700901 80.19582914054016 107.6004345922762 H 0.0 **** 0.06
16923 H 253.20273881734303 79.05057169837437 107.67862512462563 H 0.0 **** 0.06
16924 H 252.15655713198277 79.28962873181266 109.09934708570583 H 0.0 **** 0.06
16925 H 253.27176705085284 80.58004497986573 108.58913535100857 H 0.0 **** 0.06
16926 C 269.32562258191575 239.8194925879882 139.80207799351743 C 0.0 **** -0.24
16927 H 269.1916697081511 240.42756726288158 138.90745786908545 H 0.0 **** 0.06
16928 H 270.1526466163871 239.1271669866043 139.64956618743062 H 0.0 **** 0.06
16929 H 268.4118098502838 239.2576251112606 139.99812794867225 H 0.0 **** 0.06
16930 H 269.54368902871397 240.46675205674458 140.65191830653902 H 0.0 **** 0.06
16931 C 53.0143898210701 220.10485262794094 3.9408500598644878 C 0.0 **** -0.24
16932 H 53.290985706329934 221.0940763296149 4.304666677438831 H 0.0 **** 0.06
16933 H 53.45636236923667 219.34443601099855 4.584805171620701 H 0.0 **** 0.06
16934 H 53.379779238667766 219.9766944162386 2.9219195438569727 H 0.0 **** 0.06
16935 H 51.92900551847691 220.0049869338315 3.9526020414584764 H 0.0 **** 0.06
16936 C 271.04773182540214 5.423223619905812 214.8522131777457 C 0.0 **** -0.24
16937 H 271.28104527428627 4.421265649211406 215.2115895915365 H 0.0 **** 0.06
16938 H 271.4334892763745 5.54560471851984 213.8399417678165 H 0.0 **** 0.06
16939 H 271.5077671972467 6.161835256218794 215.50882162899396 H 0.0 **** 0.06
16940 H 269.9666776923778 5.5641301940193415 214.8489496260567 H 0.0 **** 0.06
16941 C 150.83876340758604 12.834258313481229 241.43910940515295 C 0.0 **** -0.24
16942 H 150.69151668493384 12.130525123083856 240.6196178853187 H 0.0 **** 0.06
16943 H 151.8755377102941 13.170678481056171 241.4472865826591 H 0.0 **** 0.06
16944 H 150.6078075446236 12.342895736191068 242.3849854874456 H 0.0 **** 0.06
16945 H 150.17818939899047 13.690975453431292 241.3041535858109 H 0.0 **** 0.06
16946 C 267.83774640144367 83.81450498926918 94.50083062388626 C 0.0 **** -0.24
16947 H 268.8255752786047 84.27350788592796 94.4670549207643 H 0.0 **** 0.06
16948 H 267.897628298191 82.86105043097155 95.02654719948939 H 0.0 **** 0.06
16949 H 267.4800589680976 83.64728831987335 93.48551115225771 H 0.0 **** 0.06
16950 H 267.1478869237175 84.47567549340604 95.02552273982346 H 0.0 **** 0.06
16951 C 125.1269481278936 233.65010311092905 177.25546110909323 C 0.0 **** -0.24
16952 H 124.71914511475313 233.14217796230616 176.381687629111 H 0.0 **** 0.06
16953 H 124.30807083090693 234.00736607255934 177.8808126133584 H 0.0 **** 0.06
16954 H 125.73457091243509 234.49536630618928 176.9326050552159 H 0.0 **** 0.06
16955 H 125.7433278529083 232.95532146717477 177.82539869269857 H 0.0 **** 0.06
16956 C 35.1908843480625 128.6510657274569 110.63797108205719 C 0.0 **** -0.24
16957 H 35.57203151410425 129.37292659932962 109.91464883302609 H 0.0 **** 0.06
16958 H 35.094488102140474 127.67584795972073 110.15999888376163 H 0.0 **** 0.06
16959 H 34.215549229684854 128.97796232795508 110.99770760633217 H 0.0 **** 0.06
16960 H 35.88257442598689 128.57897517605795 111.47714635415042 H 0.0 **** 0.06
16961 C 49.996553081053605 108.35018231403117 6.53659710857967 C 0.0 **** -0.24
16962 H 49.438152203356196 108.61360519893398 7.435400311570234 H 0.0 **** 0.06
16963 H 49.5284853609696 107.48870798503194 6.05879490450674 H 0.0 **** 0.06
16964 H 51.022412535424905 108.10271647815046 6.80738186573376 H 0.0 **** 0.06
16965 H 49.9956564900981 109.1944700809658 5.847678601317156 H 0.0 **** 0.06
16966 C 270.45016032266597 220.5390668792543 118.09921635370131 C 0.0 **** -0.24
16967 H 270.8278607651753 220.1664437646115 119.05202207665624 H 0.0 **** 0.06
16968 H 269.9988236233068 221.52070313917108 118.24625645272192 H 0.0 **** 0.06
16969 H 269.7009614032296 219.84878131197064 117.7107821028533 H 0.0 **** 0.06
16970 H 271.27367014572025 220.61924095380255 117.389631940779 H 0.0 **** 0.06
16971 C 278.60426232863705 202.14943652508867 254.3785442915736 C 0.0 **** -0.24
16972 H 279.68346359018403 202.18089939002334 254.53031411016354 H 0.0 **** 0.06
16973 H 278.15327658800095 201.48527297437658 255.11651108897405 H 0.0 **** 0.06
16974 H 278.38895116730055 201.7790235360518 253.3757134601792 H 0.0 **** 0.06
16975 H 278.19256988771076 203.15182239564285 254.49167804373516 H 0.0 **** 0.06
16976 C 106.89467198819372 283.06583356026465 190.39323984686933 C 0.0 **** -0.24
16977 H 106.68231998139623 282.2382188463405 189.71626727617144 H 0.0 **** 0.06
16978 H 107.47518658025436 282.7020235501161 191.24127548099034 H 0.0 **** 0.06
16979 H 105.95777080838477 283.49342997246447 190.74967754905873 H 0.0 **** 0.06
16980 H 107.46453672483949 283.8305974528605 189.86377527889954 H 0.0 **** 0.06
16981 C 26.87434439913295 102.21889356204903 271.10428708480686 C 0.0 **** -0.24
16982 H 26.484490306611235 102.91681589951656 271.84617491564745 H 0.0 **** 0.06
16983 H 26.154173726762252 102.10882528578213 270.2946294293313 H 0.0 **** 0.06
16984 H 27.04693220713 101.25082773818428 271.57363168653785 H 0.0 **** 0.06
16985 H 27.814435776126857 102.60177427278299 270.70584773084215 H 0.0 **** 0.06
16986 C 181.7892167197909 309.35314282602747 134.31640420564437 C 0.0 **** -0.24
16987 H 181.10582777567532 308.8498306362343 134.999842379575 H 0.0 **** 0.06
16988 H 181.69471506555078 310.4326929498076 134.43748402090026 H 0.0 **** 0.06
16989 H 181.54425723716685 309.0800871543262 133.2897295715366 H 0.0 **** 0.06
16990 H 182.81303720442185 309.0500966059793 134.538361316693 H 0.0 **** 0.06
16991 C 244.1370561810076 70.12874201561127 130.45552532232028 C 0.0 **** -0.24
16992 H 243.82675199918447 71.03442430093315 130.9761905320879 H 0.0 **** 0.06
16993 H 244.31701603613547 69.3360571576207 131.18306606012655 H 0.0 **** 0.06
16994 H 245.05256517779304 70.32516777634203 129.8975759097212 H 0.0 **** 0.06
16995 H 243.35134723704857 69.8186993132719 129.7664176898748 H 0.0 **** 0.06
16996 C 34.375522562670795 308.47221051033017 271.3031883045176 C 0.0 **** -0.24
16997 H 35.30576546300762 307.95118162658423 271.52971291415065 H 0.0 **** 0.06
16998 H 34.05298469571915 309.0358549215545 272.179043689486 H 0.0 **** 0.06
16999 H 33.607790842701434 307.74586706997536 271.035426161257 H 0.0 **** 0.06
17000 H 34.53551225210256 309.15534364976867 270.46985298379025 H 0.0 **** 0.06
17001 C 201.3718964170315 25.80311860955527 83.81493157451891 C 0.0 **** -0.24
17002 H 201.64499493905845 26.844983637956375 83.97964892553921 H 0.0 **** 0.06
17003 H 200.55088215802994 25.75215395187695 83.0989675074274 H 0.0 **** 0.06
17004 H 201.05887210330917 25.356537889562446 84.75852088562615 H 0.0 **** 0.06
17005 H 202.2308913176896 25.259890851505304 83.42274449223422 H 0.0 **** 0.06
17006 C 76.78675192375292 96.31446593502116 153.53057276425358 C 0.0 **** -0.24
17007 H 77.41833554194295 95.44265872199793 153.35484093940897 H 0.0 **** 0.06
17008 H 77.24205211934978 96.94405415738768 154.29530262102622 H 0.0 **** 0.06
17009 H 75.80327607380596 95.98798373542408 153.86541297404244 H 0.0 **** 0.06
17010 H 76.68630669687084 96.8819093836891 152.60482655532985 H 0.0 **** 0.06
17011 C 54.809218461639404 220.41683442234824 169.61585206121669 C 0.0 **** -0.24
17012 H 53.915634502063256 220.68463665083135 170.17893732991462 H 0.0 **** 0.06
17013 H 54.889559755147246 221.05511451617105 168.73539584274965 H 0.0 **** 0.06
17014 H 54.743915428759095 219.37399794398988 169.30434933825484 H 0.0 **** 0.06
17015 H 55.68909316016527 220.55314894177314 170.2449269521502 H 0.0 **** 0.06
17016 C 88.94511405541203 58.506437801425534 173.22808485632845 C 0.0 **** -0.24
17017 H 89.89449078892324 57.98138002069342 173.3367011435036 H 0.0 **** 0.06
17018 H 88.14446211001871 57.78128331981563 173.0825039853055 H 0.0 **** 0.06
17019 H 88.99542183382235 59.171637260422614 172.3665320991023 H 0.0 **** 0.06
17020 H 88.74918346567338 59.08941883439246 174.12710190948928 H 0.0 **** 0.06
17021 C 146.71796256041085 206.0901876578567 229.98537856924924 C 0.0 **** -0.24
17022 H 147.38059725935517 206.10376633880782 229.12014956825308 H 0.0 **** 0.06
17023 H 146.87377230810924 205.16865682689007 230.54738533579845 H 0.0 **** 0.06
17024 H 145.68260170704465 206.14121965056353 229.64992367735914 H 0.0 **** 0.06
17025 H 146.93597850027572 206.94649622466034 230.62340994568783 H 0.0 **** 0.06
17026 C 87.02332993462903 48.05872217962917 238.59096145514027 C 0.0 **** -0.24
17027 H 85.94325512423859 48.20579892945548 238.59204956167451 H 0.0 **** 0.06
17028 H 87.29050257190829 47.34651644866281 237.80938795585092 H 0.0 **** 0.06
17029 H 87.33759613336488 47.67022827881158 239.5592897010953 H 0.0 **** 0.06
17030 H 87.51949544945577 49.00994027159862 238.40166468386423 H 0.0 **** 0.06
17031 C 83.18821110919711 220.93092457916262 173.38355732767593 C 0.0 **** -0.24
17032 H 83.74404707329083 221.72310665130203 172.88297737305646 H 0.0 **** 0.06
17033 H 82.13132890825776 221.19783289601355 173.4216404056108 H 0.0 **** 0.06
17034 H 83.56869553970267 220.80546465922674 174.39686120753174 H 0.0 **** 0.06
17035 H 83.30770125844617 219.99793373714556 172.83208516487133 H 0.0 **** 0.06
17036 C 198.18425224921316 166.38644497813357 302.8362756099683 C 0.0 **** -0.24
17037 H 198.48688880371452 166.376398760646 303.88299932509716 H 0.0 **** 0.06
17038 H 197.3896276822956 167.11973591138872 302.69566779207025 H 0.0 **** 0.06
17039 H 197.82165342787846 165.39782258692503 302.5536518050131 H 0.0 **** 0.06
17040 H 199.03804508993306 166.65206469859896 302.2133411858521 H 0.0 **** 0.06
17041 C 228.97415099115372 50.11691187235979 50.49664382337801 C 0.0 **** -0.24
17042 H 228.53859082474773 49.27557359344428 49.95618883098615 H 0.0 **** 0.06
17043 H 229.51981204608813 49.746755075357925 51.36536490330994 H 0.0 **** 0.06
17044 H 228.17998480352557 50.787822331919244 50.8246050602188 H 0.0 **** 0.06
17045 H 229.65764774148872 50.65536981876497 49.840024007304805 H 0.0 **** 0.06
17046 C 110.90448732861779 103.65093891202167 87.33477245224273 C 0.0 **** -0.24
17047 H 110.14458875430253 103.13786236834798 86.74665600106488 H 0.0 **** 0.06
17048 H 110.42801332094973 104.1812125690671 88.16070025104369 H 0.0 **** 0.06
17049 H 111.4335847088943 104.3640251000592 86.702140329233 H 0.0 **** 0.06
17050 H 111.61212440406493 102.92254007630825 87.730741208009 H 0.0 **** 0.06
17051 C 34.66403016636525 10.260867431986867 174.73560873571216 C 0.0 **** -0.24
17052 H 35.4184094475288 11.047326792236902 174.76335627616675 H 0.0 **** 0.06
17053 H 33.849374213560935 10.562173767837123 174.07759010566565 H 0.0 **** 0.06
17054 H 34.27697643756969 10.094653278689293 175.74175963083297 H 0.0 **** 0.06
17055 H 35.112371776466574 9.340300878388462 174.36255864683142 H 0.0 **** 0.06
17056 C 183.13596873602222 209.51264234274342 138.6189729397889 C 0.0 **** -0.24
17057 H 183.83145159461213 209.78537094029494 139.4120851959872 H 0.0 **** 0.06
17058 H 182.24838893288273 209.0550752463111 139.0554059738013 H 0.0 **** 0.06
17059 H 183.61579580720473 208.80464995728912 137.9426859317719 H 0.0 **** 0.06
17060 H 182.8489579786642 210.406760637314 138.06480630951188 H 0.0 **** 0.06
17061 C 62.401305013827255 313.8562873312329 128.11479030807067 C 0.0 **** -0.24
17062 H 62.707618256794376 314.0257837428188 127.0813462966868 H 0.0 **** 0.06
17063 H 61.855063551621186 312.9156125855933 128.1807723933095 H 0.0 **** 0.06
17064 H 61.75915599280938 314.67455574862424 128.44147331079535 H 0.0 **** 0.06
17065 H 63.28470001849081 313.8100094802083 128.75114160518547 H 0.0 **** 0.06
17066 C 217.19831596353131 217.356545211104 174.52328834704753 C 0.0 **** -0.24
17067 H 217.041729525245 217.1779970299816 175.587403278421 H 0.0 **** 0.06
17068 H 216.47005609360627 216.7821433040979 173.94936555767384 H 0.0 **** 0.06
17069 H 218.20562030239748 217.04483177739561 174.24755831065107 H 0.0 **** 0.06
17070 H 217.0748776598584 218.41807012955204 174.31131387287354 H 0.0 **** 0.06
17071 C 133.61075373227385 134.8444805877982 292.16846823827933 C 0.0 **** -0.24
17072 H 134.0167153436854 135.80907311177364 291.8615109304435 H 0.0 **** 0.06
17073 H 134.19468277204913 134.04350331972492 291.7145545409669 H 0.0 **** 0.06
17074 H 132.57391680533306 134.76723523960493 291.8416491878377 H 0.0 **** 0.06
17075 H 133.65712434510863 134.7596026786121 293.25430287487916 H 0.0 **** 0.06
17076 C 109.90132743519112 293.85993671352753 162.82581916521053 C 0.0 **** -0.24
17077 H 109.78932576559632 294.318319961555 161.84342272163707 H 0.0 **** 0.06
17078 H 108.92811568607087 293.8045878724231 163.31298006730356 H 0.0 **** 0.06
17079 H 110.57786785654133 294.4626492239058 163.43166158503396 H 0.0 **** 0.06
17080 H 110.31025432991638 292.8556309965626 162.71279185018284 H 0.0 **** 0.06
17081 C 161.95570301052607 143.10742711033876 157.10209769761076 C 0.0 **** -0.24
17082 H 161.85725760930268 144.17879713710263 156.92830150376386 H 0.0 **** 0.06
17083 H 161.8298010104366 142.57334786603866 156.16059124806918 H 0.0 **** 0.06
17084 H 161.19247816282416 142.78326462303087 157.80896462978052 H 0.0 **** 0.06
17085 H 162.94420833409032 142.896308522878 157.5108341901131 H 0.0 **** 0.06
17086 C 13.299102869983031 91.24708391585477 115.85995774795873 C 0.0 **** -0.24
17087 H 12.416657558722932 90.83706073286137 116.35242766341125 H 0.0 **** 0.06
17088 H 12.989818719635437 91.9479676595461 115.08486766279526 H 0.0 **** 0.06
17089 H 13.87124819264119 90.43586217635567 115.40958193842079 H 0.0 **** 0.06
17090 H 13.91668961637285 91.76444361610623 116.59299382728094 H 0.0 **** 0.06
17091 C 71.46004981329685 197.34876042060864 146.1690910653011 C 0.0 **** -0.24
17092 H 71.75787002112236 198.27959373760632 146.6519138179263 H 0.0 **** 0.06
17093 H 72.1153157897242 196.5428055588813 146.50040604180427 H 0.0 **** 0.06
17094 H 71.53755768377025 197.4591189266958 145.0881466294267 H 0.0 **** 0.06
17095 H 70.42966917601302 197.11347601328214 146.4372949874497 H 0.0 **** 0.06
17096 C 222.1602588987284 197.34881108841262 198.44892022306055 C 0.0 **** -0.24
17097 H 222.02552926499538 198.39105672885762 198.1595652491223 H 0.0 **** 0.06
17098 H 221.41095948895511 197.07903149830076 199.19311691548802 H 0.0 **** 0.06
17099 H 223.1558764677406 197.21404692832647 198.8707834996543 H 0.0 **** 0.06
17100 H 222.04767436472258 196.71102138374675 197.5722313586624 H 0.0 **** 0.06
17101 C 252.62735905638084 63.666276775955225 13.501086969327375 C 0.0 **** -0.24
17102 H 253.70346083360872 63.83907112539811 13.525137525869567 H 0.0 **** 0.06
17103 H 252.10497015501986 64.616530549803 13.608376054169085 H 0.0 **** 0.06
17104 H 252.34774058522908 63.00331468016597 14.319789674541227 H 0.0 **** 0.06
17105 H 252.35428291497348 63.20562353057363 12.551845505191892 H 0.0 **** 0.06
17106 C 204.3986536803613 138.99002031913398 163.410149664218 C 0.0 **** -0.24
17107 H 203.31838450310693 139.08816810682757 163.519071049074 H 0.0 **** 0.06
17108 H 204.6221082424292 138.17548002627586 162.72129153718356 H 0.0 **** 0.06
17109 H 204.84366466429435 138.77673903606419 164.38185006388557 H 0.0 **** 0.06
17110 H 204.8101066720276 139.92139923418017 163.0197894371513 H 0.0 **** 0.06
17111 C 295.1550132476806 286.32887584468506 195.56979086547005 C 0.0 **** -0.24
17112 H 295.0982107401027 285.49820752382556 194.8661183797954 H 0.0 **** 0.06
17113 H 294.2554355190261 286.3440216246107 196.1856227160382 H 0.0 **** 0.06
17114 H 295.236078074216 287.265616671973 195.01992591960192 H 0.0 **** 0.06
17115 H 296.03092136195147 286.20474269222814 196.20788669946165 H 0.0 **** 0.06
17116 C 5.22213307148796 150.09649394515424 144.25177800565817 C 0.0 **** -0.24
17117 H 4.1687858392339905 149.99494373791015 143.9912525520854 H 0.0 **** 0.06
17118 H 5.503292088706559 149.30012045354414 144.9416361241325 H 0.0 **** 0.06
17119 H 5.387218796514716 151.0645606209838 144.72603423386045 H 0.0 **** 0.06
17120 H 5.828249336249627 150.02656471573317 143.3491799105918 H 0.0 **** 0.06
17121 C 135.52366124394428 158.2898767444142 191.17728301987125 C 0.0 **** -0.24
17122 H 136.5769738863843 158.17022147981385 190.92055270992813 H 0.0 **** 0.06
17123 H 135.39963799000185 158.18728544456428 192.2552628930227 H 0.0 **** 0.06
17124 H 134.93738513006693 157.52401394144294 190.66858287293678 H 0.0 **** 0.06
17125 H 135.1828822924399 159.27624367959055 190.86374781933534 H 0.0 **** 0.06
17126 C 122.26176796903923 261.8428342507497 234.49952730833058 C 0.0 **** -0.24
17127 H 121.44876066939986 262.5621976461408 234.3983255851977 H 0.0 **** 0.06
17128 H 122.24190005800651 261.1509011816056 233.65729085352996 H 0.0 **** 0.06
17129 H 122.14133890894536 261.2873976997324 235.4294103264501 H 0.0 **** 0.06
17130 H 123.21505629619057 262.37149957509035 234.5138343578043 H 0.0 **** 0.06
17131 C 236.19734054227075 4.142132389355027 266.8686453223664 C 0.0 **** -0.24
17132 H 236.05238569032886 3.803892510304536 265.8422378843634 H 0.0 **** 0.06
17133 H 236.98048595746172 3.545881991980565 267.33838150199887 H 0.0 **** 0.06
17134 H 235.26808025539242 4.024228410315615 267.42497644285214 H 0.0 **** 0.06
17135 H 236.4910125208141 5.191522946469036 266.8678872152272 H 0.0 **** 0.06
17136 C 217.04469135241825 160.4485649009032 127.04557024519576 C 0.0 **** -0.24
17137 H 217.52366273274743 159.56722333063152 126.61768380172603 H 0.0 **** 0.06
17138 H 217.4678702915607 161.34578368355932 126.59415647674334 H 0.0 **** 0.06
17139 H 217.21428810518375 160.4679711305202 128.1217629259773 H 0.0 **** 0.06
17140 H 215.97407998691864 160.41229128643994 126.84674651878746 H 0.0 **** 0.06
17141 C 139.36874929936457 216.98244529882675 170.19934059792553 C 0.0 **** -0.24
17142 H 139.12203595558458 215.97002650211112 169.88078125877024 H 0.0 **** 0.06
17143 H 139.5850243184226 216.98430888506093 171.26788914396548 H 0.0 **** 0.06
17144 H 138.52534181316082 217.64324855699337 169.9977612871445 H 0.0 **** 0.06
17145 H 140.24328099672087 217.33343194222817 169.65100216321514 H 0.0 **** 0.06
17146 C 159.7320660978666 260.5222567812363 138.84261387609698 C 0.0 **** -0.24
17147 H 159.94715959151756 259.4963808821726 139.14347893492155 H 0.0 **** 0.06
17148 H 158.80922266666266 260.54390242470066 138.2626847261117 H 0.0 **** 0.06
17149 H 160.55321283600347 260.9016034406115 138.23405697791662 H 0.0 **** 0.06
17150 H 159.6195813687479 261.1442843442368 139.73034088616168 H 0.0 **** 0.06
17151 C 115.56129177838073 144.97923785891916 154.2315931406946 C 0.0 **** -0.24
17152 H 115.61929558247806 144.53803474018943 155.2259822551586 H 0.0 **** 0.06
17153 H 115.41201095831713 144.19178300854637 153.49237500744306 H 0.0 **** 0.06
17154 H 116.48835189381666 145.51075024810154 154.01529363702713 H 0.0 **** 0.06
17155 H 114.72525632236935 145.67761714003478 154.19207799666611 H 0.0 **** 0.06
17156 C 98.25129693263389 1.4924695154288656 25.791469206881033 C 0.0 **** -0.24
17157 H 99.27086549867096 1.7673400087247728 26.061203334830225 H 0.0 **** 0.06
17158 H 98.10270799395332 0.42729856729187077 25.96710099739761 H 0.0 **** 0.06
17159 H 98.08228090387215 1.7152277220221208 24.73740530062426 H 0.0 **** 0.06
17160 H 97.54933835549639 2.0631562209325693 26.399831921082523 H 0.0 **** 0.06
17161 C 130.71305911075942 55.62653057480048 279.0370446509289 C 0.0 **** -0.24
17162 H 131.46954024974733 55.99965946320833 279.72651869928234 H 0.0 **** 0.06
17163 H 129.72159529712147 55.87662196256309 279.4137848149001 H 0.0 **** 0.06
17164 H 130.80592851943203 54.54346918148099 278.9486102270826 H 0.0 **** 0.06
17165 H 130.8564452844766 56.084130829292576 278.0577291929012 H 0.0 **** 0.06
17166 C 311.6383271635086 261.4986582952828 260.1190879197484 C 0.0 **** -0.24
17167 H 311.8730436304856 260.4806061671411 260.4276529668569 H 0.0 **** 0.06
17168 H 311.07000927080094 261.47431139558023 259.18848469710747 H 0.0 **** 0.06
17169 H 312.5644351966805 262.0534916560672 259.96474023377186 H 0.0 **** 0.06
17170 H 311.047367164918 261.98571254123465 260.8939419614152 H 0.0 **** 0.06
17171 C 188.5953343250876 217.84972462814147 67.71593774094671 C 0.0 **** -0.24
17172 H 189.04429812081014 217.42424699513538 68.61394868076312 H 0.0 **** 0.06
17173 H 187.52086441515314 217.96086820213844 67.86536288386623 H 0.0 **** 0.06
17174 H 188.77796200681303 217.18775058584635 66.87002471777978 H 0.0 **** 0.06
17175 H 189.0384046812311 218.82546111120712 67.51656792089398 H 0.0 **** 0.06
17176 C 98.01498387779111 194.00783055500597 206.83871222819317 C 0.0 **** -0.24
17177 H 97.29062274827422 194.06262797098304 207.65027894711585 H 0.0 **** 0.06
17178 H 97.82854662754295 194.81524721033355 206.12969470221657 H 0.0 **** 0.06
17179 H 97.92028756028463 193.04811209984194 206.32986308743972 H 0.0 **** 0.06
17180 H 99.02216837693052 194.10559550579154 207.2452891020435 H 0.0 **** 0.06
17181 C 4.800479959985054 91.28966351034134 199.57852942721485 C 0.0 **** -0.24
17182 H 5.76598319451945 91.02673675454406 200.01318605584993 H 0.0 **** 0.06
17183 H 4.683897440315732 90.78324557834011 198.62036203873572 H 0.0 **** 0.06
17184 H 4.753006538226671 92.36802317521912 199.42751268473876 H 0.0 **** 0.06
17185 H 4.002747632563555 90.98078886300598 200.25348048657048 H 0.0 **** 0.06
17186 C 238.55281722495843 53.723424477381144 36.11054352611083 C 0.0 **** -0.24
17187 H 239.05373377005742 52.906367075282134 36.63098004683164 H 0.0 **** 0.06
17188 H 237.61502649227793 53.95504330896523 36.61646112095056 H 0.0 **** 0.06
17189 H 238.34823916494904 53.42716604250498 35.08200810893521 H 0.0 **** 0.06
17190 H 239.1955247171029 54.60438486195349 36.114695050530116 H 0.0 **** 0.06
17191 C 95.10320703965465 35.21592492700799 129.26172817596716 C 0.0 **** -0.24
17192 H 94.22656940610676 34.633378693437976 128.97731703337894 H 0.0 **** 0.06
17193 H 94.9102692407752 36.27280135274145 129.08029341617447 H 0.0 **** 0.06
17194 H 95.95922871733609 34.894555016825734 128.66791455146065 H 0.0 **** 0.06
17195 H 95.31506268262251 35.05972573378443 130.31948351092538 H 0.0 **** 0.06
17196 C 167.33445551008253 227.77690755267756 138.33009337909104 C 0.0 **** -0.24
17197 H 168.23146088467615 227.21205499313683 138.07636459936805 H 0.0 **** 0.06
17198 H 167.1701709879838 227.7319603727116 139.40612901566126 H 0.0 **** 0.06
17199 H 166.4770034969448 227.34626865047466 137.81271099422543 H 0.0 **** 0.06
17200 H 167.46025152901927 228.8143085389596 138.0232613460071 H 0.0 **** 0.06
17201 C 76.93761818060216 130.2713630405689 228.21308545729184 C 0.0 **** -0.24
17202 H 77.67149976115994 129.52232659925468 228.50838967258278 H 0.0 **** 0.06
17203 H 76.28306931018179 129.8555185970318 227.4458967365565 H 0.0 **** 0.06
17204 H 77.45169977217478 131.1467002143887 227.81644922850785 H 0.0 **** 0.06
17205 H 76.34343588007522 130.5603863168878 229.08053879537414 H 0.0 **** 0.06
17206 C 219.6595532424938 260.06572746002365 76.20359267071467 C 0.0 **** -0.24
17207 H 218.98846600188205 260.92404154188677 76.16975182597105 H 0.0 **** 0.06
17208 H 220.57811998322933 260.30248908984606 75.66750086942935 H 0.0 **** 0.06
17209 H 219.17625952901773 259.2073349602973 75.73689806674602 H 0.0 **** 0.06
17210 H 219.89505850748557 259.82949546663735 77.24186338236962 H 0.0 **** 0.06
17211 C 297.6865189359647 250.81165444240673 80.51878009552317 C 0.0 **** -0.24
17212 H 298.244399069317 250.26095820468183 79.76127447742621 H 0.0 **** 0.06
17213 H 298.05058686177017 251.83877995742924 80.56207071346924 H 0.0 **** 0.06
17214 H 297.82364913591755 250.336245506361 81.48910941790396 H 0.0 **** 0.06
17215 H 296.6276161223603 250.81251381325387 80.26110502721627 H 0.0 **** 0.06
17216 C 36.5049646564176 62.08138620642907 129.70661951624461 C 0.0 **** -0.24
17217 H 37.2825012279155 62.19851632682625 130.46148557378942 H 0.0 **** 0.06
17218 H 36.9660895230661 61.87615100858008 128.7400851274805 H 0.0 **** 0.06
17219 H 35.91884216715255 62.9983429279105 129.64229106078227 H 0.0 **** 0.06
17220 H 35.85327031216869 61.25268950203258 129.9821038175821 H 0.0 **** 0.06
17221 C 56.33968504412337 254.45129964090034 262.3097927200494 C 0.0 **** -0.24
17222 H 56.66438544553327 255.44123054538238 261.98929653651965 H 0.0 **** 0.06
17223 H 55.35048184697328 254.52288553940394 262.7636240219833 H 0.0 **** 0.06
17224 H 57.04637756414354 254.05584908866626 263.0396529084266 H 0.0 **** 0.06
17225 H 56.29687759533874 253.7852022537688 261.4478692056915 H 0.0 **** 0.06
17226 C 13.503978095390337 29.65319525894219 244.37615854874667 C 0.0 **** -0.24
17227 H 13.867527209817709 29.46218136258551 243.36668141630656 H 0.0 **** 0.06
17228 H 14.12714467655448 29.11917245825387 245.0934746647043 H 0.0 **** 0.06
17229 H 12.47374918774166 29.308916740511393 244.46253589642458 H 0.0 **** 0.06
17230 H 13.547491307447515 30.72251047441796 244.58194221755124 H 0.0 **** 0.06
17231 C 86.26739143049173 204.8530611370312 180.26959757957758 C 0.0 **** -0.24
17232 H 86.52057806340542 205.68498033584837 179.61345863146494 H 0.0 **** 0.06
17233 H 86.18938481193257 205.20986576518828 181.29642608192694 H 0.0 **** 0.06
17234 H 87.0462841985985 204.09212753714263 180.20756155152566 H 0.0 **** 0.06
17235 H 85.31496852358515 204.42276545052988 179.96096903929737 H 0.0 **** 0.06
17236 C 235.43052422612186 194.41643694872346 80.12455292436445 C 0.0 **** -0.24
17237 H 234.98256294104908 194.720072445246 79.1780401007924 H 0.0 **** 0.06
17238 H 234.71493198290815 193.81950386780943 80.68990324756561 H 0.0 **** 0.06
17239 H 235.6999365086304 195.303408693086 80.69922196231505 H 0.0 **** 0.06
17240 H 236.32481175289544 193.8251168514788 79.92919246362655 H 0.0 **** 0.06
17241 C 195.79130960590777 265.9685124989178 298.70679562334806 C 0.0 **** -0.24
17242 H 195.15462598344584 265.849686049322 299.5831982632899 H 0.0 **** 0.06
17243 H 195.63232832141136 265.1327083548791 298.0253209469297 H 0.0 **** 0.06
17244 H 196.8365052498346 265.99049446943496 299.0177750691116 H 0.0 **** 0.06
17245 H 195.54390562785272 266.9017527147099 298.2019497891402 H 0.0 **** 0.06
17246 C 91.43625238878795 159.8363435895052 207.76953127070823 C 0.0 **** -0.24
17247 H 91.33179837097006 158.80548419661721 208.10684954308408 H 0.0 **** 0.06
17248 H 90.56960819150854 160.1097693680752 207.16605754511107 H 0.0 **** 0.06
17249 H 92.34141092928078 159.93365485460794 207.17074927308198 H 0.0 **** 0.06
17250 H 91.49920004815641 160.49663852206766 208.63460325907084 H 0.0 **** 0.06
17251 C 179.681113360069 250.15506936886467 110.8366045024705 C 0.0 **** -0.24
17252 H 180.2365842595027 249.81936659529555 109.96043894660806 H 0.0 **** 0.06
17253 H 180.37873919990983 250.4084676192528 111.63429295052612 H 0.0 **** 0.06
17254 H 179.017824500889 249.3586707833328 111.17227774639142 H 0.0 **** 0.06
17255 H 179.09039909857853 251.03394949268946 110.57638393526199 H 0.0 **** 0.06
17256 C 3.801917846187763 160.59423204132003 225.64779724754766 C 0.0 **** -0.24
17257 H 4.614691601546255 160.98215152577473 225.03376496322232 H 0.0 **** 0.06
17258 H 4.1675528239240265 160.40585019860555 226.65744010339918 H 0.0 **** 0.06
17259 H 3.4320516941802026 159.66409274045003 225.21542441753007 H 0.0 **** 0.06
17260 H 2.9933070736301346 161.3238798444204 225.6848519322716 H 0.0 **** 0.06
17261 C 148.32569693621272 0.05068636383163039 263.43765842539125 C 0.0 **** -0.24
17262 H 147.26213081393442 -0.0011752758184400136 263.6692158070898 H 0.0 **** 0.06
17263 H 148.90191323798325 0.006753271040409459 264.36295784505097 H 0.0 **** 0.06
17264 H 148.53980725374143 0.984356470726695 262.91950763249633 H 0.0 **** 0.06
17265 H 148.59909052265937 -0.7899857003018695 262.8000270450715 H 0.0 **** 0.06
17266 C 108.00970554323601 154.81896633657846 211.09051060897534 C 0.0 **** -0.24
17267 H 109.07808429152402 155.02148368728 211.15739048251933 H 0.0 **** 0.06
17268 H 107.67399748880385 154.33591685191527 212.00808820622262 H 0.0 **** 0.06
17269 H 107.81764399080748 154.1608905941166 210.24219048429399 H 0.0 **** 0.06
17270 H 107.47027411657498 155.75606224320074 210.95322132633743 H 0.0 **** 0.06
17271 C 205.16048184251366 269.57460195731545 89.78653618720017 C 0.0 **** -0.24
17272 H 205.19645828907625 269.5466477225294 88.6975092794612 H 0.0 **** 0.06
17273 H 204.8253015203914 270.5593535959564 90.11384142208962 H 0.0 **** 0.06
17274 H 206.15461346938213 269.3764822372395 90.18772222472558 H 0.0 **** 0.06
17275 H 204.4655540912047 268.81592427353644 90.1470718225242 H 0.0 **** 0.06
17276 C 164.71007557244758 246.39634015663955 192.15262174893383 C 0.0 **** -0.24
17277 H 165.48035097758532 246.41092068644696 192.92330427472933 H 0.0 **** 0.06
17278 H 163.76870956405781 246.0568065901349 192.58535879167647 H 0.0 **** 0.06
17279 H 165.00822673015642 245.71782415053934 191.3529135085385 H 0.0 **** 0.06
17280 H 164.58266307960633 247.4006370769177 191.74781919796487 H 0.0 **** 0.06
17281 C 94.82550490651977 295.69337417725944 57.75127280131372 C 0.0 **** -0.24
17282 H 93.88586458430751 296.0349024357499 57.31723839854581 H 0.0 **** 0.06
17283 H 95.28776730565536 294.9626068003551 57.088384529617315 H 0.0 **** 0.06
17284 H 94.63212070422895 295.2338562628385 58.7213687725953 H 0.0 **** 0.06
17285 H 95.49548226402703 296.54352915172865 57.87995151033053 H 0.0 **** 0.06
17286 C 133.4844511533334 302.85752717617675 177.9777821696082 C 0.0 **** -0.24
17287 H 134.53609590702604 302.74336208376883 178.23953203293166 H 0.0 **** 0.06
17288 H 133.39916698755684 303.13370371382194 176.92678479509044 H 0.0 **** 0.06
17289 H 133.03938080598962 303.6364492766256 178.59608556827544 H 0.0 **** 0.06
17290 H 132.96402158410456 301.9151343480902 178.1490864948825 H 0.0 **** 0.06
17291 C 152.05315378475598 184.4403603774271 128.6071475376003 C 0.0 **** -0.24
17292 H 153.10677405858485 184.16686131429378 128.5603829517588 H 0.0 **** 0.06
17293 H 151.8132516908974 184.78969239738052 129.61196965137037 H 0.0 **** 0.06
17294 H 151.44117679331714 183.57034091029243 128.36884596541682 H 0.0 **** 0.06
17295 H 151.8509652201002 185.2335973901371 127.88833937819871 H 0.0 **** 0.06
17296 C 95.37914653375134 233.06622898904553 140.0162198857968 C 0.0 **** -0.24
17297 H 95.14223656041986 233.83592020814106 140.75020247280227 H 0.0 **** 0.06
17298 H 95.95622326293989 232.27409023361218 140.49332887843318 H 0.0 **** 0.06
17299 H 95.96194853138354 233.50412183724853 139.2055133806603 H 0.0 **** 0.06
17300 H 94.45447133570167 232.64995667379839 139.61464984931584 H 0.0 **** 0.06
17301 C 138.24233120332232 28.957125794092292 229.9288740616973 C 0.0 **** -0.24
17302 H 139.20485068516734 29.39816329613609 229.67025171611493 H 0.0 **** 0.06
17303 H 137.66808484109808 28.780406524149925 229.01997210851872 H 0.0 **** 0.06
17304 H 137.69347091229648 29.63947534116363 230.57921538292607 H 0.0 **** 0.06
17305 H 138.40352243475996 28.012343273823035 230.44709671843873 H 0.0 **** 0.06
17306 C 279.616258199108 52.86806236082583 108.64233961566444 C 0.0 **** -0.24
17307 H 280.4676343081508 52.18892243418961 108.59711759659987 H 0.0 **** 0.06
17308 H 279.5645815144364 53.44776207296147 107.7202283869911 H 0.0 **** 0.06
17309 H 279.7344353649304 53.54268593624491 109.49040420034038 H 0.0 **** 0.06
17310 H 278.69784274515695 52.29167480600441 108.76211774109092 H 0.0 **** 0.06
17311 C 263.68081457021475 146.2619492097267 189.29620666740624 C 0.0 **** -0.24
17312 H 264.3257571398607 146.79258017457883 189.9970584446679 H 0.0 **** 0.06
17313 H 263.43720705613856 145.27904824545493 189.699120333098 H 0.0 **** 0.06
17314 H 264.19814666179633 146.14599230514943 188.34369007729856 H 0.0 **** 0.06
17315 H 262.76386462147286 146.830327615785 189.14478961748188 H 0.0 **** 0.06
17316 C 163.59428594762034 272.21559891745795 37.122065407301164 C 0.0 **** -0.24
17317 H 164.0751199213032 272.41434955762617 36.164497017761505 H 0.0 **** 0.06
17318 H 163.50678119808384 273.1448085358909 37.68482890323557 H 0.0 **** 0.06
17319 H 164.19354176402447 271.5021430493334 37.68847563363039 H 0.0 **** 0.06
17320 H 162.60085826170894 271.7997019465736 36.951052258765486 H 0.0 **** 0.06
17321 C 119.70809876633177 60.04975344539545 159.74314355219929 C 0.0 **** -0.24
17322 H 119.14467256543134 60.75682353026161 159.1348753893405 H 0.0 **** 0.06
17323 H 120.46469235664438 60.586262915743134 160.3165780138193 H 0.0 **** 0.06
17324 H 120.1918481106132 59.31867050273604 159.0959073899797 H 0.0 **** 0.06
17325 H 119.02962549677602 59.538357200665416 160.42638235076055 H 0.0 **** 0.06
17326 C 177.77623591439942 276.5542324532314 187.46047521576867 C 0.0 **** -0.24
17327 H 177.32730105174534 277.5459348637689 187.5277594966792 H 0.0 **** 0.06
17328 H 178.44802991723242 276.5177919041615 186.60317465481177 H 0.0 **** 0.06
17329 H 176.9915232815336 275.80791905889663 187.33994410974503 H 0.0 **** 0.06
17330 H 178.33752981777815 276.3487054912719 188.3724298065847 H 0.0 **** 0.06
17331 C 2.737196643832945 35.056175276183836 73.45434343363382 C 0.0 **** -0.24
17332 H 1.726253124892935 34.79022097632452 73.14642808917245 H 0.0 **** 0.06
17333 H 3.440096904953748 34.31241232474619 73.07882879257318 H 0.0 **** 0.06
17334 H 2.7880528721131554 35.08809232882723 74.5424818870033 H 0.0 **** 0.06
17335 H 2.99421568335174 36.035333846979114 73.04999079367104 H 0.0 **** 0.06
17336 C 61.47754840246262 12.04579185108382 33.5493573933704 C 0.0 **** -0.24
17337 H 62.066788473145806 11.324098416714037 34.114075969876694 H 0.0 **** 0.06
17338 H 61.71246195858183 11.956103037775407 32.48782317499595 H 0.0 **** 0.06
17339 H 61.71472670867246 13.054127923516333 33.889855807143675 H 0.0 **** 0.06
17340 H 60.41641596587107 11.849874546374267 33.7047334326528 H 0.0 **** 0.06
17341 C 118.29405086294977 48.25693684124943 175.46833867644364 C 0.0 **** -0.24
17342 H 118.83265868641416 48.16761880387347 174.52531256473458 H 0.0 **** 0.06
17343 H 117.2320007827891 48.39643874081449 175.2669182290099 H 0.0 **** 0.06
17344 H 118.67356896300572 49.11418871375136 176.02403606443073 H 0.0 **** 0.06
17345 H 118.43609665429705 47.35016007224769 176.05606925515843 H 0.0 **** 0.06
17346 C 310.60392936853543 56.57563297835634 174.58544689779598 C 0.0 **** -0.24
17347 H 311.42500591630335 56.04234344260007 175.06558326193726 H 0.0 **** 0.06
17348 H 310.90549184861095 57.60405054784832 174.38697341660668 H 0.0 **** 0.06
17349 H 309.73464466674966 56.572225637829405 175.24362533154545 H 0.0 **** 0.06
17350 H 310.35075211416864 56.08266478954488 173.64624777214374 H 0.0 **** 0.06
17351 C 180.20057551556005 88.56960493866484 42.410670450451335 C 0.0 **** -0.24
17352 H 180.371313922728 89.64619894170451 42.42870100256624 H 0.0 **** 0.06
17353 H 179.86563883500855 88.2711889150394 41.41711640155634 H 0.0 **** 0.06
17354 H 179.43678876082407 88.3111171456627 43.14400134674605 H 0.0 **** 0.06
17355 H 181.1278054054303 88.04991671247694 42.65351861701646 H 0.0 **** 0.06
17356 C 161.67145853380663 183.10927081263168 105.16106357587847 C 0.0 **** -0.24
17357 H 162.24437273241688 182.9719309927923 104.2438517976806 H 0.0 **** 0.06
17358 H 161.85048047174257 184.1107925035688 105.55315642399432 H 0.0 **** 0.06
17359 H 161.9838963872392 182.36929273784727 105.89737151625616 H 0.0 **** 0.06
17360 H 160.60995923153348 182.9851264558293 104.9482214814733 H 0.0 **** 0.06
17361 C 115.87416222072099 272.57134438591015 243.3684376907029 C 0.0 **** -0.24
17362 H 116.74626599756033 272.4657189475249 242.72381949726523 H 0.0 **** 0.06
17363 H 115.69028891202805 273.6286340720518 243.56023570286214 H 0.0 **** 0.06
17364 H 116.05652778498177 272.0572494373379 244.31280443117788 H 0.0 **** 0.06
17365 H 115.00544739397557 272.13296172324624 242.87884037267443 H 0.0 **** 0.06
17366 C 182.91719992191554 229.7379913302634 87.33226748063146 C 0.0 **** -0.24
17367 H 182.17414581149103 229.57931612676043 86.55236998274452 H 0.0 **** 0.06
17368 H 182.77470638312184 230.72323659597978 87.77601707999347 H 0.0 **** 0.06
17369 H 183.91638616652227 229.67495174403905 86.90011216871846 H 0.0 **** 0.06
17370 H 182.80543234164355 228.9733834078451 88.10115244199582 H 0.0 **** 0.06
17371 C 126.45628409266331 298.5363772240173 272.31743519289466 C 0.0 **** -0.24
17372 H 127.03660841208568 298.8255412011151 273.1937429182401 H 0.0 **** 0.06
17373 H 125.39939802986424 298.730961536396 272.5008149828545 H 0.0 **** 0.06
17374 H 126.60204594240915 297.47496316211385 272.1197384124058 H 0.0 **** 0.06
17375 H 126.78772235104933 299.11592114222555 271.45518935638046 H 0.0 **** 0.06
17376 C 132.4856608786405 235.20070501945008 49.35989776717554 C 0.0 **** -0.24
17377 H 132.629772511758 235.5982818214772 50.36433784601451 H 0.0 **** 0.06
17378 H 132.46178764323145 234.11183814587832 49.39978948077294 H 0.0 **** 0.06
17379 H 133.30611426169423 235.52378619278892 48.720328267645016 H 0.0 **** 0.06
17380 H 131.5424124457686 235.56992588850375 48.95633525988356 H 0.0 **** 0.06
17381 C 273.0235464173147 78.33640657212771 231.19350509560587 C 0.0 **** -0.24
17382 H 272.20100914018104 79.03811895076063 231.32886576819377 H 0.0 **** 0.06
17383 H 273.59865590706124 78.61663549374447 230.31054633110728 H 0.0 **** 0.06
17384 H 272.6260826490369 77.32996952378014 231.06434485331857 H 0.0 **** 0.06
17385 H 273.67075095090274 78.36170515349147 232.07033838907842 H 0.0 **** 0.06
17386 C 120.01379994306788 32.12295944516421 109.49111929105246 C 0.0 **** -0.24
17387 H 119.09942473793143 32.418385973239765 108.97836155832391 H 0.0 **** 0.06
17388 H 120.87592093246062 32.524922928680894 108.95812762964181 H 0.0 **** 0.06
17389 H 120.07899134475889 31.034997051703243 109.51998561046699 H 0.0 **** 0.06
17390 H 120.00209358497449 32.51299033804602 110.50844038572745 H 0.0 **** 0.06
17391 C 65.23143250046468 54.86149705718432 136.58527988236116 C 0.0 **** -0.24
17392 H 65.01231293641888 54.07282018636727 135.86450823579835 H 0.0 **** 0.06
17393 H 65.97811560662728 54.50625309739485 137.296102238508 H 0.0 **** 0.06
17394 H 64.31915898867075 55.12888391883257 137.11877745216896 H 0.0 **** 0.06
17395 H 65.6153859792133 55.73607066549485 136.06096692648813 H 0.0 **** 0.06
17396 C 183.64049684951863 150.48824070412053 237.53414381685428 C 0.0 **** -0.24
17397 H 183.91343363991575 149.58338577409722 238.07722614433317 H 0.0 **** 0.06
17398 H 184.38919017611443 150.690914908381 236.76781436871983 H 0.0 **** 0.06
17399 H 183.59272393381679 151.32713864295044 238.22775346377279 H 0.0 **** 0.06
17400 H 182.66694977483496 150.34932208731834 237.0640214272109 H 0.0 **** 0.06
17401 C 14.173086295350458 173.304559691671 102.48388692803317 C 0.0 **** -0.24
17402 H 15.037202956264537 172.69738476192737 102.21170985886178 H 0.0 **** 0.06
17403 H 13.2693910022806 172.70037371817665 102.41291178775666 H 0.0 **** 0.06
17404 H 14.097382417450262 174.1535714348962 101.80286024515254 H 0.0 **** 0.06
17405 H 14.290724368533915 173.6664647669353 103.50442518900931 H 0.0 **** 0.06
17406 C 269.9272671854792 51.55678893921677 74.15877138236951 C 0.0 **** -0.24
17407 H 270.6500377826706 51.74159015385197 73.36429953064118 H 0.0 **** 0.06
17408 H 269.0244674372881 52.136080466866844 73.97013341673124 H 0.0 **** 0.06
17409 H 270.35720377138233 51.852477396398314 75.11591150776766 H 0.0 **** 0.06
17410 H 269.680331109577 50.4955530473332 74.18450667043317 H 0.0 **** 0.06
17411 C 223.77360724162622 38.373429566343475 110.89543218140011 C 0.0 **** -0.24
17412 H 223.82038820052423 38.39571878800879 111.98367943148264 H 0.0 **** 0.06
17413 H 223.14735819955854 37.539840554487114 110.57619112751678 H 0.0 **** 0.06
17414 H 224.77776323728872 38.24960850242738 110.49126089895685 H 0.0 **** 0.06
17415 H 223.34742509408517 39.30864364640931 110.53146823495138 H 0.0 **** 0.06
17416 C 296.0250746032376 272.32703913783024 68.08832855242443 C 0.0 **** -0.24
17417 H 296.2997952953617 273.2448021730783 68.6081082188428 H 0.0 **** 0.06
17418 H 294.9408687879215 272.2739560974712 67.99304325641165 H 0.0 **** 0.06
17419 H 296.3822706816006 271.4672009986656 68.65663805790018 H 0.0 **** 0.06
17420 H 296.4780999132534 272.32062180330246 67.09724972933432 H 0.0 **** 0.06
17421 C 280.11483900662193 68.24206078646478 227.19082483614284 C 0.0 **** -0.24
17422 H 279.2427207998612 67.92435024972087 226.6185406388783 H 0.0 **** 0.06
17423 H 279.84715195560904 69.09315781194186 227.8173213227789 H 0.0 **** 0.06
17424 H 280.9123518915783 68.53052083444851 226.50648037130082 H 0.0 **** 0.06
17425 H 280.4555830983693 67.41936221704981 227.8195870158014 H 0.0 **** 0.06
17426 C 152.9664795951182 60.211716558796354 263.30825751224813 C 0.0 **** -0.24
17427 H 153.64158423035286 60.94904420009769 263.7415299744244 H 0.0 **** 0.06
17428 H 151.98783437547434 60.29445725119402 263.78105965054147 H 0.0 **** 0.06
17429 H 153.36724050644187 59.211728316377304 263.4735014409398 H 0.0 **** 0.06
17430 H 152.8699788208603 60.39204344813996 262.23808642360945 H 0.0 **** 0.06
17431 C 300.76563425195866 36.99066301822808 9.76042152004274 C 0.0 **** -0.24
17432 H 301.6588361909638 37.21762106689022 10.342328462340035 H 0.0 **** 0.06
17433 H 300.2120994351588 36.18490950211407 10.243642828021052 H 0.0 **** 0.06
17434 H 301.05562159494815 36.68060858031629 8.755943575371333 H 0.0 **** 0.06
17435 H 300.1368493761795 37.87869978400329 9.6990079141937 H 0.0 **** 0.06
17436 C 57.74043040249771 161.55151826836754 111.93043640446953 C 0.0 **** -0.24
17437 H 56.84479673224874 161.2450740638559 111.38964196099974 H 0.0 **** 0.06
17438 H 58.510166233218314 161.84890887183224 111.21747572184208 H 0.0 **** 0.06
17439 H 58.10480831842446 160.71856316587844 112.53219539630228 H 0.0 **** 0.06
17440 H 57.50263816732161 162.39304446185042 112.581294967854 H 0.0 **** 0.06
17441 C 65.15393273641993 309.07718860099453 38.134924206885984 C 0.0 **** -0.24
17442 H 65.65881547713451 308.9890592677437 37.17289718595984 H 0.0 **** 0.06
17443 H 65.36410744988427 308.1941311007349 38.737912091131534 H 0.0 **** 0.06
17444 H 64.07907607129641 309.1612265190763 37.97446197513767 H 0.0 **** 0.06
17445 H 65.51419228530548 309.9653445650859 38.65354583047883 H 0.0 **** 0.06
17446 C 282.0039178805771 53.14451030255805 264.1651751472084 C 0.0 **** -0.24
17447 H 282.45727694471054 53.94587182938335 264.747988675714 H 0.0 **** 0.06
17448 H 281.01298796896714 52.92274670594446 264.5629303143203 H 0.0 **** 0.06
17449 H 282.62772814693903 52.252931956578664 264.22476669234453 H 0.0 **** 0.06
17450 H 281.9165964754176 53.45700117242524 263.1242607504228 H 0.0 **** 0.06
17451 C 30.873246960990883 203.20486030352163 108.54405556679853 C 0.0 **** -0.24
17452 H 31.903487446298982 203.15375399484748 108.89620899531113 H 0.0 **** 0.06
17453 H 30.31268237050338 202.3575699882619 108.93899329800581 H 0.0 **** 0.06
17454 H 30.859820236298958 203.1749516665265 107.45428469683625 H 0.0 **** 0.06
17455 H 30.418223667082486 204.13362736684468 108.88726817013313 H 0.0 **** 0.06
17456 C 310.1257224656376 260.63267147170717 203.65284218036493 C 0.0 **** -0.24
17457 H 309.9416988807874 259.96449658397313 202.811008471351 H 0.0 **** 0.06
17458 H 311.1992669716925 260.7820352724418 203.76894127303552 H 0.0 **** 0.06
17459 H 309.7180048940369 260.1917683111297 204.562273394314 H 0.0 **** 0.06
17460 H 309.6438831957255 261.5927159100055 203.46671871011404 H 0.0 **** 0.06
17461 C 2.5486172384696033 20.650727093292275 119.79594494903577 C 0.0 **** -0.24
17462 H 1.9787867643929218 21.28689921788893 119.119387778977 H 0.0 **** 0.06
17463 H 3.6138652893795324 20.843469977717405 119.66554892111688 H 0.0 **** 0.06
17464 H 2.338601947587179 19.604176200366155 119.57352381829077 H 0.0 **** 0.06
17465 H 2.263773616384455 20.867650128352068 120.82489531347565 H 0.0 **** 0.06
17466 C 96.72799326563981 313.9394937509777 191.83059418493025 C 0.0 **** -0.24
17467 H 96.71728736473494 313.106022020767 192.5324357662538 H 0.0 **** 0.06
17468 H 97.2729966876455 314.7753883177873 192.26924084612568 H 0.0 **** 0.06
17469 H 95.70509258758739 314.24626254286784 191.61449592780912 H 0.0 **** 0.06
17470 H 97.21870032801269 313.63055504861313 190.9074328725448 H 0.0 **** 0.06
17471 C 113.38874751186435 106.69869904747449 173.65053676478584 C 0.0 **** -0.24
17472 H 113.49605502046649 107.16442541097044 174.6299485274816 H 0.0 **** 0.06
17473 H 113.41646388410018 107.46743166224351 172.87776168545798 H 0.0 **** 0.06
17474 H 112.43670996737788 106.16942526083048 173.6025250392056 H 0.0 **** 0.06
17475 H 114.2051709366045 105.99477410778366 173.49166002910096 H 0.0 **** 0.06
17476 C 115.22062088700761 212.72863267124353 241.94909794044005 C 0.0 **** -0.24
17477 H 114.91847647542787 213.32388986218663 242.8109546469465 H 0.0 **** 0.06
17478 H 115.44503519524406 211.7113626603765 242.27060734199586 H 0.0 **** 0.06
17479 H 116.10885677254365 213.17082342073815 241.4960684601811 H 0.0 **** 0.06
17480 H 114.41217834992759 212.70977484936253 241.2187422781998 H 0.0 **** 0.06
17481 C 186.38591639334186 175.36217813159408 221.15652801534253 C 0.0 **** -0.24
17482 H 186.60379333262847 175.46242261725519 220.0932613356469 H 0.0 **** 0.06
17483 H 185.58627080844246 174.63471896747444 221.29523797167417 H 0.0 **** 0.06
17484 H 186.073360693086 176.32710469270063 221.55588001113455 H 0.0 **** 0.06
17485 H 187.2805687101623 175.02421107934657 221.6797763836576 H 0.0 **** 0.06
17486 C 259.85800123486223 249.06501780292535 198.4083926895389 C 0.0 **** -0.24
17487 H 259.2276812407858 249.24563755312124 197.53828318151028 H 0.0 **** 0.06
17488 H 260.42876957791714 249.9655415049952 198.63755402051584 H 0.0 **** 0.06
17489 H 260.5425048980168 248.24367713765872 198.19721363037985 H 0.0 **** 0.06
17490 H 259.2317912583217 248.8052566016699 199.26262131176685 H 0.0 **** 0.06
17491 C 159.10874983896065 126.60974338378637 28.054666949062863 C 0.0 **** -0.24
17492 H 160.00472066431485 126.27356600841233 27.532842838621377 H 0.0 **** 0.06
17493 H 158.8019798587984 125.85202107918855 28.774836674122128 H 0.0 **** 0.06
17494 H 158.30746126961276 126.77180849332882 27.33312493180739 H 0.0 **** 0.06
17495 H 159.32070581259086 127.54318226585931 28.57667640437188 H 0.0 **** 0.06
17496 C 34.48896535851358 313.0821942259213 130.3842640427491 C 0.0 **** -0.24
17497 H 35.1470696370009 312.73217034472657 129.58909337532964 H 0.0 **** 0.06
17498 H 33.48198193249834 313.21723146183 129.9895417677476 H 0.0 **** 0.06
17499 H 34.85943445218089 314.03124403989784 130.77086907121506 H 0.0 **** 0.06
17500 H 34.46799212682447 312.34596270015356 131.18851003701923 H 0.0 **** 0.06
17501 C 201.8487030269817 0.2825699426301753 258.51111326875105 C 0.0 **** -0.24
17502 H 202.28004016310524 -0.6800242165852808 258.78540345916883 H 0.0 **** 0.06
17503 H 201.85403457989128 0.9436939373782849 259.37885343549846 H 0.0 **** 0.06
17504 H 200.82399055411332 0.13756736834452 258.1711015852946 H 0.0 **** 0.06
17505 H 202.43849565265862 0.7291673447487881 257.7104824112307 H 0.0 **** 0.06
17506 C 292.91752152328263 34.437919751861955 304.81243610914083 C 0.0 **** -0.24
17507 H 293.58930285095767 35.290031022476086 304.921328649516 H 0.0 **** 0.06
17508 H 292.3269393069694 34.55541207588803 303.9039238368033 H 0.0 **** 0.06
17509 H 292.25377153196746 34.386981819643296 305.6750099447825 H 0.0 **** 0.06
17510 H 293.50279566424365 33.52138420106587 304.74969770892255 H 0.0 **** 0.06
17511 C 127.86605723531048 241.29043792561055 141.8340298474443 C 0.0 **** -0.24
17512 H 128.33645333336673 240.66256218120014 142.59082500537818 H 0.0 **** 0.06
17513 H 128.31611757222421 241.08706885038475 140.86248568426416 H 0.0 **** 0.06
17514 H 128.01172820703772 242.33949590032896 142.09100588166177 H 0.0 **** 0.06
17515 H 126.79886673998513 241.071476492257 141.79415894571997 H 0.0 **** 0.06
17516 C 149.64186609360496 287.29353583940104 300.0290262113767 C 0.0 **** -0.24
17517 H 148.70862496776286 287.4172505191287 299.4807725992117 H 0.0 **** 0.06
17518 H 150.1714960300249 286.4185878740085 299.6512438120889 H 0.0 **** 0.06
17519 H 149.42530086632695 287.15730371631975 301.0888595301751 H 0.0 **** 0.06
17520 H 150.26240155574624 288.17963924238734 299.8953555361234 H 0.0 **** 0.06
17521 C 183.77402157199197 208.6707506629516 18.851199062361502 C 0.0 **** -0.24
17522 H 183.1809178710776 209.25541176568186 18.147688759117514 H 0.0 **** 0.06
17523 H 184.786237175184 209.0729635120505 18.896185147570208 H 0.0 **** 0.06
17524 H 183.8106626906258 207.6325571628102 18.52028058705325 H 0.0 **** 0.06
17525 H 183.3177692081141 208.72035737268186 19.839293845059487 H 0.0 **** 0.06
17526 C 242.68733789015187 182.5160093821546 177.74188349504465 C 0.0 **** -0.24
17527 H 243.70759204495394 182.42225054775787 177.36790341919448 H 0.0 **** 0.06
17528 H 242.26288385040206 181.52346531957022 177.89204807406657 H 0.0 **** 0.06
17529 H 242.0846838143522 183.06379070576799 177.01654837107804 H 0.0 **** 0.06
17530 H 242.695912042495 183.0556190334018 178.68805803016528 H 0.0 **** 0.06
17531 C 298.76532320544385 66.50316253718225 308.61608110920304 C 0.0 **** -0.24
17532 H 299.0410111206084 66.11858371518676 309.5975588975393 H 0.0 **** 0.06
17533 H 298.15706413949385 65.76355291246279 308.09416170210847 H 0.0 **** 0.06
17534 H 299.6680398061337 66.70487470047547 308.0385819348244 H 0.0 **** 0.06
17535 H 298.19508422273367 67.42469966383311 308.73369138656614 H 0.0 **** 0.06
17536 C 139.5795913542732 177.47570528742068 211.49522283805481 C 0.0 **** -0.24
17537 H 140.4473302601422 177.89470965943468 212.00467732798668 H 0.0 **** 0.06
17538 H 139.14294929105014 176.68787279058625 212.11027244771338 H 0.0 **** 0.06
17539 H 139.88737277766796 177.06021610283995 210.5368410390119 H 0.0 **** 0.06
17540 H 138.84066396385717 178.25995679210598 211.3315486558772 H 0.0 **** 0.06
17541 C 29.48600541322969 117.55728786887394 92.91438784723033 C 0.0 **** -0.24
17542 H 29.83559410989605 117.3938597294725 93.93378587367297 H 0.0 **** 0.06
17543 H 30.302615477046515 117.9491773972351 92.30884846230617 H 0.0 **** 0.06
17544 H 28.66366318674602 118.27294106260442 92.92355957188977 H 0.0 **** 0.06
17545 H 29.140673109896653 116.61340890112805 92.49329825860025 H 0.0 **** 0.06
17546 C 270.6881918464741 140.58541253264488 302.3844579569485 C 0.0 **** -0.24
17547 H 269.90520770406897 140.8989771093823 303.0748987139053 H 0.0 **** 0.06
17548 H 270.9416182114086 139.54200348268708 302.57180517902856 H 0.0 **** 0.06
17549 H 271.57120692923445 141.20638031784907 302.531854424085 H 0.0 **** 0.06
17550 H 270.3333755783488 140.69605833736398 301.35912031607074 H 0.0 **** 0.06
17551 C 235.32088500398498 52.319606593159506 151.19918326256646 C 0.0 **** -0.24
17552 H 234.23677786956625 52.331087385392976 151.31020695755916 H 0.0 **** 0.06
17553 H 235.59313657355307 51.68345370408457 150.35736859670897 H 0.0 **** 0.06
17554 H 235.77568818687968 51.931084649053105 152.11032326998986 H 0.0 **** 0.06
17555 H 235.67831375289717 53.33401349540813 151.0194565799145 H 0.0 **** 0.06
17556 C 237.2431499244579 303.70209881210127 313.0105117619119 C 0.0 **** -0.24
17557 H 237.98240476268677 304.4159125382702 312.64659061651344 H 0.0 **** 0.06
17558 H 236.57324896386 304.19904109665737 313.7133961238376 H 0.0 **** 0.06
17559 H 237.75044549830545 302.87826139437107 313.5127332873948 H 0.0 **** 0.06
17560 H 236.66757144441038 303.31599640314533 312.16975930778585 H 0.0 **** 0.06
17561 C 118.75937436411422 35.57488523202758 45.04937290136229 C 0.0 **** -0.24
17562 H 119.3649713730963 36.3795230931259 45.466565333888155 H 0.0 **** 0.06
17563 H 118.67670250642507 34.76788580430042 45.77769469801879 H 0.0 **** 0.06
17564 H 119.23265204968146 35.19766123829697 44.14212340610578 H 0.0 **** 0.06
17565 H 117.76590561742012 35.953251465972244 44.81130319200864 H 0.0 **** 0.06
17566 C 183.89743261998876 2.750957559882522 65.54346165770494 C 0.0 **** -0.24
17567 H 183.831339061432 2.850024726055949 66.62676525613193 H 0.0 **** 0.06
17568 H 184.92856692960493 2.9056962940778703 65.22696314864024 H 0.0 **** 0.06
17569 H 183.25713492436262 3.4966040127721953 65.0719941838739 H 0.0 **** 0.06
17570 H 183.57203450070415 1.7537742798426734 65.24877383067547 H 0.0 **** 0.06
17571 C 292.76190385740244 157.66410327302629 106.35279330097725 C 0.0 **** -0.24
17572 H 292.5450001442397 156.60016474518756 106.25132929965918 H 0.0 **** 0.06
17573 H 292.09294480198423 158.10224762887844 107.09311326765666 H 0.0 **** 0.06
17574 H 292.6147006613238 158.15683094745714 105.39200664129962 H 0.0 **** 0.06
17575 H 293.795501800177 157.79430194918552 106.67402211193524 H 0.0 **** 0.06
17576 C 146.43190193764573 228.630317920868 151.64034692442414 C 0.0 **** -0.24
17577 H 146.7431959138229 227.5889352988906 151.56433613088882 H 0.0 **** 0.06
17578 H 145.87400107713015 228.77549077832077 152.56601955887498 H 0.0 **** 0.06
17579 H 145.79738582580057 228.88285297441922 150.7899824691517 H 0.0 **** 0.06
17580 H 147.3113375017382 229.27360870814334 151.64097750378193 H 0.0 **** 0.06
17581 C 297.88604171974373 74.43914326362838 196.47730112985835 C 0.0 **** -0.24
17582 H 298.2137778715512 74.07738472233612 195.50282787648877 H 0.0 **** 0.06
17583 H 297.3172670812547 75.36021615277573 196.3509742038235 H 0.0 **** 0.06
17584 H 298.75668626439744 74.6330809178647 197.10390516257218 H 0.0 **** 0.06
17585 H 297.2580055639507 73.68596281921239 196.95222549365627 H 0.0 **** 0.06
17586 C 273.41882993964356 205.76747818176835 171.52320763891277 C 0.0 **** -0.24
17587 H 273.8848108806307 205.29847592430423 170.65668932150163 H 0.0 **** 0.06
17588 H 274.1902007309676 206.187301676615 172.16761952453675 H 0.0 **** 0.06
17589 H 272.84795105244245 205.02073742354617 172.0763675547043 H 0.0 **** 0.06
17590 H 272.7506300826991 206.56112996066048 171.18994625202998 H 0.0 **** 0.06
17591 C 272.85830310885615 244.68967427658762 8.769121434437523 C 0.0 **** -0.24
17592 H 273.6607557578669 245.17493431206438 8.214551521044456 H 0.0 **** 0.06
17593 H 272.4362530849626 245.3935821442667 9.487598886301399 H 0.0 **** 0.06
17594 H 273.25518678957235 243.82357162971095 9.298964713403194 H 0.0 **** 0.06
17595 H 272.08171279274154 244.36695164054453 8.0765530799777 H 0.0 **** 0.06
17596 C 15.47118295328066 45.41858959610761 141.0823713296602 C 0.0 **** -0.24
17597 H 15.184385635579957 45.43854744924349 142.13356319158927 H 0.0 **** 0.06
17598 H 14.584334992974249 45.55388162112715 140.462363169867 H 0.0 **** 0.06
17599 H 15.934351839940433 44.46043891514236 140.849308678198 H 0.0 **** 0.06
17600 H 16.1791737094416 46.22344393847504 140.88417716300913 H 0.0 **** 0.06
17601 C 299.02961541295514 190.4775728624312 168.69947385070049 C 0.0 **** -0.24
17602 H 299.8851961839925 190.70306722567886 169.3357451643215 H 0.0 **** 0.06
17603 H 298.6110738807546 191.406613138924 168.31133276266803 H 0.0 **** 0.06
17604 H 298.2726718597686 189.95287291628728 169.28164287225547 H 0.0 **** 0.06
17605 H 299.35045484703716 189.84795963056513 167.86945120849384 H 0.0 **** 0.06
17606 C 276.9672402140198 131.08405605043978 52.34024893029178 C 0.0 **** -0.24
17607 H 277.6751863654184 131.89302863202684 52.16318692469363 H 0.0 **** 0.06
17608 H 276.1073544010875 131.20319773791803 51.68110858348203 H 0.0 **** 0.06
17609 H 276.63637344409096 131.11251765999728 53.378171116614624 H 0.0 **** 0.06
17610 H 277.4509887669493 130.1280911422647 52.13938882380995 H 0.0 **** 0.06
17611 C 185.33886594468458 212.8593840763087 311.5988050751322 C 0.0 **** -0.24
17612 H 185.0939355975628 211.9142025805897 312.08216044144893 H 0.0 **** 0.06
17613 H 185.39829726701322 213.64651010086237 312.35023297434867 H 0.0 **** 0.06
17614 H 184.56473167461144 213.10636602335975 310.87260648134 H 0.0 **** 0.06
17615 H 186.29932675859675 212.76893763605577 311.09015016053115 H 0.0 **** 0.06
17616 C 32.06832061196209 227.0792658671472 214.73590243964995 C 0.0 **** -0.24
17617 H 32.862749626878156 227.79128181014786 214.51250551350998 H 0.0 **** 0.06
17618 H 31.433793171765103 226.95673091507646 213.8578998969332 H 0.0 **** 0.06
17619 H 31.47063653016923 227.44975092443462 215.56820341082698 H 0.0 **** 0.06
17620 H 32.50761770194876 226.11841965835848 215.00361119689217 H 0.0 **** 0.06
17621 C 42.94949475782104 182.10129177769363 279.2168010241753 C 0.0 **** -0.24
17622 H 42.0137408460422 181.55783579506067 279.0894096687133 H 0.0 **** 0.06
17623 H 43.067645831332584 182.8179439803992 278.4045915128928 H 0.0 **** 0.06
17624 H 43.78164353655532 181.39804619790658 279.20578239441295 H 0.0 **** 0.06
17625 H 42.93380159798724 182.63071478274048 280.16949213709773 H 0.0 **** 0.06
17626 C 277.3423249294617 242.55595552466912 276.7374218716916 C 0.0 **** -0.24
17627 H 278.1484189308364 242.1317252143375 277.33610831303935 H 0.0 **** 0.06
17628 H 276.74044222285465 243.21970736202258 277.3587068780205 H 0.0 **** 0.06
17629 H 276.7165442264093 241.75257376456142 276.3494481526653 H 0.0 **** 0.06
17630 H 277.76504061443813 243.12090610407643 275.90664774945543 H 0.0 **** 0.06
17631 C 238.20777163853984 96.73501873846888 281.9645211259432 C 0.0 **** -0.24
17632 H 237.462316811488 97.27185808812857 282.55203365158144 H 0.0 **** 0.06
17633 H 237.82710084816335 95.74403943193386 281.7152158555979 H 0.0 **** 0.06
17634 H 239.12537424774354 96.63804692922835 282.5428335497799 H 0.0 **** 0.06
17635 H 238.41230337338376 97.28695575322402 281.04737792613685 H 0.0 **** 0.06
17636 C 60.99304712462876 62.24114394215081 0.5977002411134862 C 0.0 **** -0.24
17637 H 61.23214092239874 63.26754293327443 0.32388715575049787 H 0.0 **** 0.06
17638 H 61.89275178894357 61.742515738861016 0.9590529557992937 H 0.0 **** 0.06
17639 H 60.60945399924765 61.71161332604865 -0.2748133656411227 H 0.0 **** 0.06
17640 H 60.236791635226524 62.24155218767331 1.3829395803733604 H 0.0 **** 0.06
17641 C 158.74367514122451 65.8144836992173 282.4338074626096 C 0.0 **** -0.24
17642 H 158.32258470648196 66.35455931767814 281.58604539679243 H 0.0 **** 0.06
17643 H 159.76101853120974 65.50302869230103 282.1965427237851 H 0.0 **** 0.06
17644 H 158.13362479483192 64.93588035782673 282.64352892846676 H 0.0 **** 0.06
17645 H 158.756620506393 66.46469910258392 283.30864384589205 H 0.0 **** 0.06
17646 C 290.2577134118276 69.07967173248755 59.494765304853644 C 0.0 **** -0.24
17647 H 291.0710445662859 68.3548798626926 59.46929913509621 H 0.0 **** 0.06
17648 H 289.4027673794114 68.68583235347361 58.946081269543214 H 0.0 **** 0.06
17649 H 290.58694231332674 70.01184781046155 59.034557259875186 H 0.0 **** 0.06
17650 H 289.9713698116758 69.2675387810813 60.52975016771285 H 0.0 **** 0.06
17651 C 58.202913471833256 273.0346989500633 17.646183133149805 C 0.0 **** -0.24
17652 H 59.103969662282196 273.36648932628 18.1597902080469 H 0.0 **** 0.06
17653 H 58.42392699255407 272.8743995747643 16.5911478343057 H 0.0 **** 0.06
17654 H 57.428090268228374 273.79550170050845 17.74331464338782 H 0.0 **** 0.06
17655 H 57.85344468627616 272.1021577551056 18.090463272555425 H 0.0 **** 0.06
17656 C 247.86502924787723 132.7813010933234 288.1161022962643 C 0.0 **** -0.24
17657 H 247.95754141950766 133.67155196140845 288.73786691256765 H 0.0 **** 0.06
17658 H 248.50652115590302 132.8819751353884 287.24034364151106 H 0.0 **** 0.06
17659 H 246.82874574733222 132.6683994689115 287.79657595547417 H 0.0 **** 0.06
17660 H 248.1663911949666 131.90554686012766 288.6895243423701 H 0.0 **** 0.06
17661 C 276.5012350848975 208.52657659231826 34.20387261315446 C 0.0 **** -0.24
17662 H 277.4101383041748 208.11054199026478 34.640363741450784 H 0.0 **** 0.06
17663 H 276.6741082500941 208.74991927399412 33.15031517634401 H 0.0 **** 0.06
17664 H 276.23173936572243 209.44184214201823 34.73029770558253 H 0.0 **** 0.06
17665 H 275.6921620869616 207.80213091113058 34.29405956616341 H 0.0 **** 0.06
17666 C 44.237802478746715 26.032857412518666 183.94187959015113 C 0.0 **** -0.24
17667 H 44.39485662266142 27.110815377040467 183.9776143323054 H 0.0 **** 0.06
17668 H 44.12269391847266 25.64848453703624 184.95580309124892 H 0.0 **** 0.06
17669 H 45.096989690499754 25.556919718319136 183.46839463794453 H 0.0 **** 0.06
17670 H 43.33909998180721 25.814966667570104 183.3658919255201 H 0.0 **** 0.06
17671 C 87.5647164411227 263.5099425839836 193.90201100624517 C 0.0 **** -0.24
17672 H 88.5160468233729 263.6049319960085 193.37931141604867 H 0.0 **** 0.06
17673 H 87.60827470552485 262.66001808412665 194.5839768248078 H 0.0 **** 0.06
17674 H 86.76573897439357 263.35239008053543 193.1765473114371 H 0.0 **** 0.06
17675 H 87.3669277499599 264.4203027491355 194.46723428064297 H 0.0 **** 0.06
17676 C 196.9386064565836 191.6196822222205 99.6742451410548 C 0.0 **** -0.24
17677 H 196.53504499728365 191.1860014505295 100.59000793422155 H 0.0 **** 0.06
17678 H 196.7338181698994 190.95220359880358 98.83645495221566 H 0.0 **** 0.06
17679 H 198.01468214230113 191.75116931755093 99.77864151748861 H 0.0 **** 0.06
17680 H 196.46975089879334 192.5859380632533 99.49210382502105 H 0.0 **** 0.06
17681 C 177.41786006388674 34.87197151627137 188.7651054768727 C 0.0 **** -0.24
17682 H 176.50180462074854 34.30033406374449 188.91747477362935 H 0.0 **** 0.06
17683 H 177.29924927507813 35.52390357052931 187.89979950430495 H 0.0 **** 0.06
17684 H 178.24825041926056 34.1874935437971 188.5947731305668 H 0.0 **** 0.06
17685 H 177.6189613972282 35.475185235906 189.6508203380173 H 0.0 **** 0.06
17686 C 227.6429901483974 95.69959518885568 303.28216259067756 C 0.0 **** -0.24
17687 H 228.6890124798236 95.8951450787821 303.0467143554759 H 0.0 **** 0.06
17688 H 227.0223834960973 95.96486774959888 302.4254238860673 H 0.0 **** 0.06
17689 H 227.34638915192102 96.29663748926944 304.14493005267724 H 0.0 **** 0.06
17690 H 227.51341406535536 94.64134245040174 303.5104552391997 H 0.0 **** 0.06
17691 C 131.9114398572825 37.529111072406295 189.6026428333505 C 0.0 **** -0.24
17692 H 132.47011125214064 36.69734125934241 189.17216448798922 H 0.0 **** 0.06
17693 H 131.8743812651538 37.41720368461233 190.6864775760409 H 0.0 **** 0.06
17694 H 130.89851402390468 37.53194667053958 189.20259839055234 H 0.0 **** 0.06
17695 H 132.4052708080999 38.46665543337468 189.35021877288818 H 0.0 **** 0.06
17696 C 0.5395155323287923 63.246951523290164 37.98038388404649 C 0.0 **** -0.24
17697 H 0.03392327674606577 62.481818753898494 37.39114143229915 H 0.0 **** 0.06
17698 H 1.4944442697990752 63.49083348024044 37.515736659159614 H 0.0 **** 0.06
17699 H 0.710015173852284 62.87331335438864 38.990270879172755 H 0.0 **** 0.06
17700 H -0.08312542594650552 64.14083982640722 38.024749312020646 H 0.0 **** 0.06
17701 C 141.01570728423562 91.26589430806607 131.1376562019348 C 0.0 **** -0.24
17702 H 139.9558367070302 91.50622713991069 131.22486768113978 H 0.0 **** 0.06
17703 H 141.16436463189444 90.57722875016555 130.3060077835383 H 0.0 **** 0.06
17704 H 141.35976638741164 90.80060617360854 132.06133451994717 H 0.0 **** 0.06
17705 H 141.58191033326548 92.17972993638159 130.95863692936362 H 0.0 **** 0.06
17706 C 284.3488032626419 163.0597507193633 73.7538551195743 C 0.0 **** -0.24
17707 H 285.2915667370409 162.540973347047 73.92876487105241 H 0.0 **** 0.06
17708 H 284.0735184842931 163.62315057809843 74.64520479177946 H 0.0 **** 0.06
17709 H 283.5696857103399 162.33095366473316 73.52924424466735 H 0.0 **** 0.06
17710 H 284.46103886454574 163.74250491900068 72.91141507774725 H 0.0 **** 0.06
17711 C 201.92082000902457 237.23074954125693 276.6239589526606 C 0.0 **** -0.24
17712 H 201.5281004838809 238.229772985981 276.43813679152873 H 0.0 **** 0.06
17713 H 202.7488736501686 237.29248175927844 277.330510191617 H 0.0 **** 0.06
17714 H 202.27283737201373 236.79794583308978 275.6878200345555 H 0.0 **** 0.06
17715 H 201.13292101835776 236.60308527124113 277.041738918586 H 0.0 **** 0.06
17716 C 185.95546450151977 244.4541971699221 299.84873694293213 C 0.0 **** -0.24
17717 H 186.09591769566362 245.33854750553675 299.22721805019364 H 0.0 **** 0.06
17718 H 186.92814568008907 244.03701614199875 300.1118484601173 H 0.0 **** 0.06
17719 H 185.37853996749442 243.71114144204634 299.29816849374714 H 0.0 **** 0.06
17720 H 185.42020193916073 244.72978176775558 300.7576051789707 H 0.0 **** 0.06
17721 C 170.89730012026342 115.839665759105 279.39843473175574 C 0.0 **** -0.24
17722 H 170.3839540468503 116.70711423626807 278.98323562340414 H 0.0 **** 0.06
17723 H 170.46008658893243 115.58680790533813 280.36379921156777 H 0.0 **** 0.06
17724 H 171.9547716845001 116.07086298969341 279.52646629538754 H 0.0 **** 0.06
17725 H 170.7897538054723 114.99550229982424 278.7175998087504 H 0.0 **** 0.06
17726 C 69.09228535262343 226.30586645890025 221.01674628108321 C 0.0 **** -0.24
17727 H 69.98221909882858 225.95463699447942 221.53956091671137 H 0.0 **** 0.06
17728 H 68.39342533941169 226.73146022499714 221.73623149569528 H 0.0 **** 0.06
17729 H 68.62113376322557 225.46839446568055 220.50190048698204 H 0.0 **** 0.06
17730 H 69.37546230502812 227.06707451424788 220.2901793829604 H 0.0 **** 0.06
17731 C 45.44062666735206 243.3166622678296 30.80217430541714 C 0.0 **** -0.24
17732 H 46.48518300065578 243.41885304286365 31.096076433973593 H 0.0 **** 0.06
17733 H 45.24137373972948 242.2819111693585 30.52381341725203 H 0.0 **** 0.06
17734 H 45.237365865706465 243.96749089466877 29.951176362181712 H 0.0 **** 0.06
17735 H 44.79875731728336 243.59919998093753 31.63706503568997 H 0.0 **** 0.06
17736 C 0.11427682083522939 35.46243642819249 133.38766333315775 C 0.0 **** -0.24
17737 H -0.8431123043598774 35.23192772911452 132.92224401187025 H 0.0 **** 0.06
17738 H 0.3211176961571738 34.73509819402648 134.1735833682346 H 0.0 **** 0.06
17739 H 0.0767568847879403 36.46288950389402 133.81999567374316 H 0.0 **** 0.06
17740 H 0.9024484373074557 35.42075659895747 132.6362901621494 H 0.0 **** 0.06
17741 C 138.41740783772528 236.03742902651183 30.056097003883224 C 0.0 **** -0.24
17742 H 138.4718147635024 236.57127148296377 29.107269586175647 H 0.0 **** 0.06
17743 H 138.21266952214378 234.98330419077604 29.869114644915413 H 0.0 **** 0.06
17744 H 137.61834897553604 236.46123885999458 30.666038410010998 H 0.0 **** 0.06
17745 H 139.3667824944255 236.13628766728053 30.58348403950788 H 0.0 **** 0.06
17746 C 220.14314603725856 82.76117154708322 231.99854796665437 C 0.0 **** -0.24
17747 H 219.37887371782958 83.52904255360971 232.1160140744594 H 0.0 **** 0.06
17748 H 219.96464872139697 82.20856971614631 231.07659337412298 H 0.0 **** 0.06
17749 H 220.10397375951857 82.07656483648881 232.84621862050327 H 0.0 **** 0.06
17750 H 221.12595599615264 83.23062727515216 231.957423113573 H 0.0 **** 0.06
17751 C 149.6148912006576 211.01999596075046 57.85897953703551 C 0.0 **** -0.24
17752 H 150.64553440243867 210.69139913887392 57.990334271638176 H 0.0 **** 0.06
17753 H 149.2342783665968 210.64815951294486 56.907281643808886 H 0.0 **** 0.06
17754 H 149.57898960108673 212.10989778293836 57.86467585657178 H 0.0 **** 0.06
17755 H 149.0027218123323 210.63157358685237 58.67259372514471 H 0.0 **** 0.06
17756 C 159.27173851750206 178.07250614961384 170.48792050899226 C 0.0 **** -0.24
17757 H 158.65326375383313 178.65380506935844 169.8029563571768 H 0.0 **** 0.06
17758 H 159.23823985616286 177.02049536303173 170.2043671714785 H 0.0 **** 0.06
17759 H 158.89357589595238 178.18761442426535 171.50410527085882 H 0.0 **** 0.06
17760 H 160.30055177833623 178.43013579635362 170.43987196503917 H 0.0 **** 0.06
17761 C 249.16865102460667 278.19649130417554 89.8883991008712 C 0.0 **** -0.24
17762 H 249.63127204765874 279.11456610780084 90.25134647475204 H 0.0 **** 0.06
17763 H 248.83605760661686 277.59861076653135 90.73638425799743 H 0.0 **** 0.06
17764 H 249.89474970027914 277.63036994581347 89.30578974081163 H 0.0 **** 0.06
17765 H 248.31347772321664 278.4452223044352 89.2595963764835 H 0.0 **** 0.06
17766 C 84.8986634663257 217.57458271791245 139.05761972901433 C 0.0 **** -0.24
17767 H 84.75412834546395 216.7295484354267 139.73073785387626 H 0.0 **** 0.06
17768 H 84.46927646915645 217.33844854729975 138.083079417897 H 0.0 **** 0.06
17769 H 85.96427234496551 217.77258812667736 138.94756101683504 H 0.0 **** 0.06
17770 H 84.40517320052996 218.45497764603638 139.46939209138066 H 0.0 **** 0.06
17771 C 212.78116782628052 191.88312645184658 273.6239251565051 C 0.0 **** -0.24
17772 H 213.22965346363395 192.0464196467658 272.64342920018623 H 0.0 **** 0.06
17773 H 212.32693790200926 192.81048196857955 273.9744651347185 H 0.0 **** 0.06
17774 H 213.55022502875516 191.56630849206272 274.3265151775712 H 0.0 **** 0.06
17775 H 212.0164871754393 191.10965712259286 273.54812903702395 H 0.0 **** 0.06
17776 C 283.46589046594465 215.01537014643463 278.79744646323235 C 0.0 **** -0.24
17777 H 284.17338290957554 214.44973275939134 279.4031164517867 H 0.0 **** 0.06
17778 H 282.4798972629306 214.55354549936544 278.86508341787146 H 0.0 **** 0.06
17779 H 283.79590722807114 215.01765650464932 277.7592624462591 H 0.0 **** 0.06
17780 H 283.4126984683631 216.04058977567337 279.1641093523508 H 0.0 **** 0.06
17781 C 96.84361864408592 260.4035563358489 67.2863137499736 C 0.0 **** -0.24
17782 H 96.56649669102484 259.81418186188876 68.15986941432271 H 0.0 **** 0.06
17783 H 96.22603555344841 261.30038810551287 67.24179127023672 H 0.0 **** 0.06
17784 H 96.6898556016819 259.81042165060296 66.38484133115043 H 0.0 **** 0.06
17785 H 97.89383473846897 260.68826559612415 67.35866806783895 H 0.0 **** 0.06
17786 C 172.75867774056934 59.91587286854468 17.695761213353578 C 0.0 **** -0.24
17787 H 171.97677911092768 60.32711365182573 18.334612450639554 H 0.0 **** 0.06
17788 H 173.21286416139924 60.71927207704877 17.115069590705232 H 0.0 **** 0.06
17789 H 172.32538731310422 59.17881867007 17.020642810450127 H 0.0 **** 0.06
17790 H 173.51907003001958 59.438704376828696 18.313925549269413 H 0.0 **** 0.06
17791 C 208.6345652507456 272.4499315905555 246.30290558869507 C 0.0 **** -0.24
17792 H 209.36896993616443 272.3760850015132 247.10479322921844 H 0.0 **** 0.06
17793 H 207.8403987982391 271.72216343388675 246.4701404736553 H 0.0 **** 0.06
17794 H 209.1185005910095 272.2471882032719 245.34726912158794 H 0.0 **** 0.06
17795 H 208.2107889628008 273.45406621714756 246.29030959426902 H 0.0 **** 0.06
17796 C 120.7347798496071 181.22365737814795 260.80121178321275 C 0.0 **** -0.24
17797 H 120.63907318018005 180.48941104624834 261.6008503926141 H 0.0 **** 0.06
17798 H 119.76103205904568 181.3835990232604 260.3360061621779 H 0.0 **** 0.06
17799 H 121.43890294366801 180.85736369549318 260.0538537979017 H 0.0 **** 0.06
17800 H 121.09911995365738 182.16465507868577 261.21321052772294 H 0.0 **** 0.06
17801 C 140.96794968052473 121.4169344672959 256.46651289661025 C 0.0 **** -0.24
17802 H 141.3882236318291 121.84388160971943 257.3773017277559 H 0.0 **** 0.06
17803 H 141.27776404912572 122.01607035744894 255.6098148193489 H 0.0 **** 0.06
17804 H 139.88095107006617 121.41389431733728 256.5348584885172 H 0.0 **** 0.06
17805 H 141.32814236059855 120.3954277597507 256.34500722166376 H 0.0 **** 0.06
17806 C 312.44636112754284 28.38103183444892 19.116588532285846 C 0.0 **** -0.24
17807 H 313.21519717033686 27.660029562721746 18.839450999899668 H 0.0 **** 0.06
17808 H 312.07739892435177 28.879954931573394 18.220663879162657 H 0.0 **** 0.06
17809 H 312.8687808423906 29.12051889079487 19.79673618312802 H 0.0 **** 0.06
17810 H 311.6232116424802 27.86323696402073 19.60916009895459 H 0.0 **** 0.06
17811 C 162.5771601711773 62.573040141810054 21.770131270312874 C 0.0 **** -0.24
17812 H 161.61029543524563 62.26350508941576 22.16750638993105 H 0.0 **** 0.06
17813 H 163.07318015580427 63.224928777750506 22.48927501908193 H 0.0 **** 0.06
17814 H 162.42890721562298 63.10980776421627 20.83267463966598 H 0.0 **** 0.06
17815 H 163.1935797825443 61.69305069383162 21.590797009883374 H 0.0 **** 0.06
17816 C 12.980404024771943 144.7665300947743 228.78112076357291 C 0.0 **** -0.24
17817 H 12.862807013930947 145.84964464836142 228.81735827986495 H 0.0 **** 0.06
17818 H 12.02948225959149 144.30654591631858 228.50961255272884 H 0.0 **** 0.06
17819 H 13.29483846255917 144.40240534110728 229.75871500135077 H 0.0 **** 0.06
17820 H 13.734794684341225 144.5086146045656 228.03662516875872 H 0.0 **** 0.06
17821 C 281.59491080815184 186.3801986245914 268.64574144340185 C 0.0 **** -0.24
17822 H 282.04582605049336 185.53109953266562 269.1588208950886 H 0.0 **** 0.06
17823 H 281.44027320491455 187.19275043927098 269.35612592606265 H 0.0 **** 0.06
17824 H 280.6365134054854 186.08104453574032 268.22134469534967 H 0.0 **** 0.06
17825 H 282.25754282775506 186.71599373677157 267.8479891009855 H 0.0 **** 0.06
17826 C 52.56309267871728 233.23615729128056 210.45098794858686 C 0.0 **** -0.24
17827 H 51.64900856355683 233.819920524856 210.3357097012697 H 0.0 **** 0.06
17828 H 52.6203458200047 232.49131458497465 209.6566386709224 H 0.0 **** 0.06
17829 H 52.55521221872368 232.73578006955006 211.41909222101668 H 0.0 **** 0.06
17830 H 53.426176362509466 233.89893219654192 210.39036346034703 H 0.0 **** 0.06
17831 C 83.5313654778443 208.38304302267755 237.09755151896027 C 0.0 **** -0.24
17832 H 84.52645208726562 208.75531016122704 236.85449974231406 H 0.0 **** 0.06
17833 H 83.4849313231465 207.31298666729464 236.89319981410205 H 0.0 **** 0.06
17834 H 82.79100911155012 208.9020931910335 236.48943169509982 H 0.0 **** 0.06
17835 H 83.32433919751901 208.56131850572308 238.15265924824854 H 0.0 **** 0.06
17836 C 44.49605361207455 37.17235089598512 115.74335095150113 C 0.0 **** -0.24
17837 H 44.80130810653475 38.21083596940608 115.8698214764909 H 0.0 **** 0.06
17838 H 44.15403666993291 36.7752586525736 116.69973817276616 H 0.0 **** 0.06
17839 H 45.34161100842579 36.58514261004237 115.38696006714596 H 0.0 **** 0.06
17840 H 43.68423560029538 37.11885387188866 115.01750734777985 H 0.0 **** 0.06
17841 C 130.03921685656715 257.32886758180655 205.56082779755872 C 0.0 **** -0.24
17842 H 130.9336921023686 256.72645867467656 205.72098988918867 H 0.0 **** 0.06
17843 H 129.33925128999715 257.1634105291341 206.38087384927633 H 0.0 **** 0.06
17844 H 129.57124941256103 257.039884343331 204.61927189727487 H 0.0 **** 0.06
17845 H 130.3124822305399 258.3828170044174 205.5229200861499 H 0.0 **** 0.06
17846 C 237.33821068471624 305.6209664194395 122.14869639298351 C 0.0 **** -0.24
17847 H 236.4042557059028 305.06802647869495 122.24846547043964 H 0.0 **** 0.06
17848 H 238.14186645879 304.93325976521226 121.88463710722061 H 0.0 **** 0.06
17849 H 237.57344570637184 306.1097323568934 123.09354171776963 H 0.0 **** 0.06
17850 H 237.23252710794105 306.37375501796646 121.36735609670123 H 0.0 **** 0.06
17851 C 254.2973743600928 204.28018547710002 263.5483326985013 C 0.0 **** -0.24
17852 H 253.28836601818128 204.63671904507697 263.3378158648893 H 0.0 **** 0.06
17853 H 254.971318152237 205.13330974684413 263.6393387711316 H 0.0 **** 0.06
17854 H 254.63196521815726 203.63771045258062 262.73479158483303 H 0.0 **** 0.06
17855 H 254.29522407574822 203.71685004453275 264.4808255462983 H 0.0 **** 0.06
17856 C 10.313622674709805 115.23132381406961 26.247659619146418 C 0.0 **** -0.24
17857 H 10.95785989856779 114.38082550639143 26.47031041600755 H 0.0 **** 0.06
17858 H 10.691898944108232 116.11664699419512 26.75951241458685 H 0.0 **** 0.06
17859 H 9.300624418998169 115.01896441036865 26.588929843217244 H 0.0 **** 0.06
17860 H 10.304107437164973 115.40885834532318 25.171885802774057 H 0.0 **** 0.06
17861 C 83.57397615808722 96.41622612352305 40.18684528156561 C 0.0 **** -0.24
17862 H 83.54122303505102 96.91012035671378 41.15883863381987 H 0.0 **** 0.06
17863 H 82.72542318916982 96.74263267762748 39.58533720045682 H 0.0 **** 0.06
17864 H 83.52647938807897 95.33583818671428 40.3273348465211 H 0.0 **** 0.06
17865 H 84.50246151134337 96.67669629821543 39.67899334875551 H 0.0 **** 0.06
17866 C 276.9158553895046 202.58578940083208 297.5537403644583 C 0.0 **** -0.24
17867 H 277.9179349169486 202.32814575209392 297.8971857351749 H 0.0 **** 0.06
17868 H 276.7986600953018 203.66954024715193 297.5573064244125 H 0.0 **** 0.06
17869 H 276.1779839770129 202.13808494915725 298.2189665285884 H 0.0 **** 0.06
17870 H 276.7705547787782 202.2077143759359 296.5424830521619 H 0.0 **** 0.06
17871 C 13.292946308989244 96.72620204461097 265.52327680640497 C 0.0 **** -0.24
17872 H 12.374271787302305 97.3102688358193 265.4729036543851 H 0.0 **** 0.06
17873 H 13.43351228761037 96.35943289633002 266.5406980335363 H 0.0 **** 0.06
17874 H 14.13805829932032 97.35456494311691 265.2431837168133 H 0.0 **** 0.06
17875 H 13.224769098107927 95.88197386227756 264.8386820469145 H 0.0 **** 0.06
17876 C 21.091741086510126 280.86649178254305 185.6343865959147 C 0.0 **** -0.24
17877 H 21.19703522183829 281.35392762917286 186.6033452059649 H 0.0 **** 0.06
17878 H 21.73094869967389 281.36425773956466 184.90590185036825 H 0.0 **** 0.06
17879 H 20.052851827868324 280.9275905254823 185.30827096065178 H 0.0 **** 0.06
17880 H 21.383869958416994 279.82018575872115 185.72097628560778 H 0.0 **** 0.06
17881 C 260.3224267785027 71.08288926058435 55.01977560279511 C 0.0 **** -0.24
17882 H 261.0403721042282 70.27828470070634 55.17912541293478 H 0.0 **** 0.06
17883 H 259.3471346013876 70.65561492570691 54.78138690099934 H 0.0 **** 0.06
17884 H 260.6562347263185 71.70923498968085 54.19343631129712 H 0.0 **** 0.06
17885 H 260.24496985351686 71.68417945707043 55.92507879505382 H 0.0 **** 0.06
17886 C 61.61615754686849 255.88988995029254 193.66317623425232 C 0.0 **** -0.24
17887 H 61.57602953560772 255.56469859049213 194.7028442932579 H 0.0 **** 0.06
17888 H 60.60479052220563 255.94864313715587 193.2613153714272 H 0.0 **** 0.06
17889 H 62.197776227891126 255.17370526024104 193.08197183509373 H 0.0 **** 0.06
17890 H 62.08749713915191 256.87114363389907 193.6075655595502 H 0.0 **** 0.06
17891 C 123.32478127009037 194.38832073256208 312.05790656062265 C 0.0 **** -0.24
17892 H 123.39637422389632 193.8620932541151 311.106801186198 H 0.0 **** 0.06
17893 H 124.30064952048508 194.79791725027206 312.32082709139985 H 0.0 **** 0.06
17894 H 123.00020674867324 193.6943673368014 312.83325900593417 H 0.0 **** 0.06
17895 H 122.60200070056047 195.20025868062896 311.97113460886305 H 0.0 **** 0.06
17896 C 67.61241097908112 71.53539849377324 15.405428609942646 C 0.0 **** -0.24
17897 H 66.58884307935165 71.71920196057661 15.079204163813245 H 0.0 **** 0.06
17898 H 68.06243918066909 70.76779542733436 14.775185399816081 H 0.0 **** 0.06
17899 H 67.6081748880315 71.19739799574816 16.441715283133803 H 0.0 **** 0.06
17900 H 68.19020183432528 72.45578445637597 15.325611607535748 H 0.0 **** 0.06
17901 C 291.67869738882246 88.77905607654318 238.09488219005073 C 0.0 **** -0.24
17902 H 292.70405913038167 89.12416287693878 238.23137010041336 H 0.0 **** 0.06
17903 H 291.13025300648826 89.50348500466652 237.49092950346505 H 0.0 **** 0.06
17904 H 291.1969198884793 88.67741028995798 239.06785543158844 H 0.0 **** 0.06
17905 H 291.6839172043821 87.81441113540654 237.58879006931105 H 0.0 **** 0.06
17906 C 73.45818406871757 294.44331333874675 204.27935890974402 C 0.0 **** -0.24
17907 H 73.79926180992123 293.412630756622 204.16799126388548 H 0.0 **** 0.06
17908 H 72.842604959337 294.52606257050616 205.17458528931752 H 0.0 **** 0.06
17909 H 72.87085359312334 294.7270809803756 203.40653866231946 H 0.0 **** 0.06
17910 H 74.32101033688878 295.10304279427646 204.36716678717556 H 0.0 **** 0.06
17911 C 272.3397479154818 140.39041883224445 86.72545209671443 C 0.0 **** -0.24
17912 H 271.57536460243847 140.85667876543948 86.10454455823219 H 0.0 **** 0.06
17913 H 273.2577263424892 140.9765459877279 86.67357803018535 H 0.0 **** 0.06
17914 H 272.533741305505 139.37996189642928 86.36653052779602 H 0.0 **** 0.06
17915 H 271.9931774427507 140.34873231653566 87.75810619772056 H 0.0 **** 0.06
17916 C 234.77822255208105 284.30078804696313 145.15875422805578 C 0.0 **** -0.24
17917 H 233.85260769748635 284.3820545133309 145.72745383805457 H 0.0 **** 0.06
17918 H 235.62904295892648 284.3824775151147 145.8361867503397 H 0.0 **** 0.06
17919 H 234.82302357676275 285.1026566885917 144.42111820383622 H 0.0 **** 0.06
17920 H 234.8095085823319 283.33704190884424 144.65066573696507 H 0.0 **** 0.06
17921 C 173.87469673364848 135.10945185615702 244.47265942644924 C 0.0 **** -0.24
17922 H 173.10805704372234 135.089056521728 243.69863684129655 H 0.0 **** 0.06
17923 H 174.8258468812922 134.7833877753127 244.05186617362585 H 0.0 **** 0.06
17924 H 173.5888377948998 134.44259006014676 245.28553294549275 H 0.0 **** 0.06
17925 H 173.97613482165025 136.1255814291278 244.8560526486366 H 0.0 **** 0.06
17926 C 22.75684803804495 175.35946248704659 193.41254130712844 C 0.0 **** -0.24
17927 H 22.89013250706398 175.83010784162843 192.43923069703072 H 0.0 **** 0.06
17928 H 21.913324875915578 175.82109430702604 193.92605478183577 H 0.0 **** 0.06
17929 H 23.660682108390517 175.49173506027063 194.00680411696555 H 0.0 **** 0.06
17930 H 22.562187923437932 174.2957965757592 193.27836748261007 H 0.0 **** 0.06
17931 C 46.77017972875964 286.2253828363371 194.20080011835415 C 0.0 **** -0.24
17932 H 45.69430234164898 286.0496506235967 194.20699598279356 H 0.0 **** 0.06
17933 H 47.255801791067114 285.4771737514353 193.57450807238564 H 0.0 **** 0.06
17934 H 47.15542758191884 286.15417481322686 195.21730533379548 H 0.0 **** 0.06
17935 H 46.973320800574214 287.2201577624778 193.80377757130975 H 0.0 **** 0.06
17936 C 98.46942893334045 19.29960846639551 150.24475766800361 C 0.0 **** -0.24
17937 H 99.01064844757593 18.87945568480751 149.3979799993283 H 0.0 **** 0.06
17938 H 99.01620307813508 19.09242433800705 151.16513102995822 H 0.0 **** 0.06
17939 H 97.47769773363635 18.849915320048694 150.3013585112621 H 0.0 **** 0.06
17940 H 98.37204034388006 20.377771897115963 150.11522994153262 H 0.0 **** 0.06
17941 C 113.13516927551217 125.73043654077892 188.52873877137478 C 0.0 **** -0.24
17942 H 113.35301657736647 124.74211819664083 188.12326527523248 H 0.0 **** 0.06
17943 H 113.94621712805355 126.03883820033138 189.18869645850265 H 0.0 **** 0.06
17944 H 112.20178192753906 125.69461577677265 189.09024325043947 H 0.0 **** 0.06
17945 H 113.04015048049894 126.44539375223471 187.71048027206433 H 0.0 **** 0.06
17946 C 207.84281836612445 285.2229149483172 246.00438558380282 C 0.0 **** -0.24
17947 H 208.77078392749627 284.94817018538436 246.5046700794929 H 0.0 **** 0.06
17948 H 207.64444154034538 284.5194165909825 245.19525515550134 H 0.0 **** 0.06
17949 H 207.93450358692706 286.230448938603 245.59726958814085 H 0.0 **** 0.06
17950 H 207.02234500714576 285.193544037582 246.72094134855436 H 0.0 **** 0.06
17951 C 7.159113018428457 180.69794448919583 84.55901913197476 C 0.0 **** -0.24
17952 H 7.010707856126146 181.69695822076227 84.14883036712646 H 0.0 **** 0.06
17953 H 8.14544701186685 180.33148104717316 84.27350354300816 H 0.0 **** 0.06
17954 H 6.394204969789655 180.02764922445272 84.16568048703527 H 0.0 **** 0.06
17955 H 7.084415816578144 180.73683744218152 85.6458549140018 H 0.0 **** 0.06
17956 C 61.47092724371879 164.76501814066512 231.37727039027823 C 0.0 **** -0.24
17957 H 61.742446953563956 163.77038206261972 231.7304777909687 H 0.0 **** 0.06
17958 H 60.66954959453338 164.6828160516564 230.64219485995523 H 0.0 **** 0.06
17959 H 62.33938320070098 165.23675714458693 230.91778381603825 H 0.0 **** 0.06
17960 H 61.131384532619165 165.36929386052844 232.2192804600483 H 0.0 **** 0.06
17961 C 87.01311069970274 62.40864019633949 304.44108784883747 C 0.0 **** -0.24
17962 H 86.30447868564923 63.097173123968446 303.98015354891015 H 0.0 **** 0.06
17963 H 87.17398925287912 62.69430496927106 305.4807147432142 H 0.0 **** 0.06
17964 H 87.95952066326666 62.44754140466142 303.90186597782133 H 0.0 **** 0.06
17965 H 86.61325852626334 61.39530404509091 304.3997425294409 H 0.0 **** 0.06
17966 C 10.09050544928617 268.23616311723055 270.754956209125 C 0.0 **** -0.24
17967 H 9.510233880699218 268.3594387643853 271.6700121508952 H 0.0 **** 0.06
17968 H 11.021745177675413 268.79640624481067 270.8385836931179 H 0.0 **** 0.06
17969 H 9.514934787628036 268.6111099134969 269.90816658529405 H 0.0 **** 0.06
17970 H 10.311823050030597 267.18010011551047 270.6053941843267 H 0.0 **** 0.06
17971 C 175.48953031363197 243.92479314576627 11.636847456008496 C 0.0 **** -0.24
17972 H 175.10001224358558 242.91007607986046 11.550619256469702 H 0.0 **** 0.06
17973 H 176.20366017405195 244.1096706177742 10.834255895066093 H 0.0 **** 0.06
17974 H 175.985389138181 244.04211291368142 12.600238055183397 H 0.0 **** 0.06
17975 H 174.667108721489 244.63624341185192 11.562499668937633 H 0.0 **** 0.06
17976 C 172.69909897004726 78.93356553863623 8.732473065797151 C 0.0 **** -0.24
17977 H 172.6326876854775 80.01568341659353 8.850192200111707 H 0.0 **** 0.06
17978 H 172.40103389617292 78.44907379914142 9.662309242951324 H 0.0 **** 0.06
17979 H 173.725711894659 78.65696811179438 8.49087190765006 H 0.0 **** 0.06
17980 H 172.0371093723905 78.61449118177032 7.926917554873029 H 0.0 **** 0.06
17981 C 95.29324752499735 61.812693109857776 148.30110145924476 C 0.0 **** -0.24
17982 H 95.23653905033336 60.79680893731211 147.91033958029112 H 0.0 **** 0.06
17983 H 96.32552326329977 62.04420344500738 148.56134770694192 H 0.0 **** 0.06
17984 H 94.66648638382034 61.89618859020254 149.18901999551628 H 0.0 **** 0.06
17985 H 94.9429480085872 62.51369384897026 147.54237385986616 H 0.0 **** 0.06
17986 C 39.44180471788843 112.17618824309966 76.44763270448269 C 0.0 **** -0.24
17987 H 39.55807113973867 111.68071740477245 77.41151709452552 H 0.0 **** 0.06
17988 H 39.31416616323543 111.42669301824517 75.66674368806204 H 0.0 **** 0.06
17989 H 40.328274981497316 112.77462832274514 76.23653487255794 H 0.0 **** 0.06
17990 H 38.56453099442132 112.8236229134423 76.47639932532468 H 0.0 **** 0.06
17991 C 160.86912603119129 35.63488674064914 48.934237341122326 C 0.0 **** -0.24
17992 H 159.82910750255468 35.626972699988926 49.259717257406464 H 0.0 **** 0.06
17993 H 161.33214440323712 36.57949303859337 49.219488596459314 H 0.0 **** 0.06
17994 H 160.91149652821582 35.521582019538755 47.85103877649004 H 0.0 **** 0.06
17995 H 161.40420903285116 34.8099216617253 49.40615169405643 H 0.0 **** 0.06
17996 C 232.8096381413917 238.12614933108424 221.07000577145436 C 0.0 **** -0.24
17997 H 232.96103839056147 237.05001102015706 221.15209504353143 H 0.0 **** 0.06
17998 H 233.51258864964794 238.53839987493677 220.34551324152343 H 0.0 **** 0.06
17999 H 232.97581747004443 238.59084313683474 222.04206258519196 H 0.0 **** 0.06
18000 H 231.79006051895618 238.32556360835673 220.74137411717896 H 0.0 **** 0.06
18001 C 198.2084040734166 282.9809234433276 309.3530002660342 C 0.0 **** -0.24
18002 H 198.48182610289751 283.03264495127763 310.40668600072297 H 0.0 **** 0.06
18003 H 197.9974482591075 281.9461848880156 309.0824598480854 H 0.0 **** 0.06
18004 H 199.03314084254282 283.3541101912202 308.74504692314474 H 0.0 **** 0.06
18005 H 197.32285214289885 283.5911313994751 309.17744578651894 H 0.0 **** 0.06
18006 C 96.30320491242375 106.40248098308666 264.47982474466227 C 0.0 **** -0.24
18007 H 95.96053774738976 107.43664847076178 264.4794172214025 H 0.0 **** 0.06
18008 H 95.44414140684512 105.73541519550767 264.4083861121065 H 0.0 **** 0.06
18009 H 96.8447351237335 106.20010322468187 265.4040896551567 H 0.0 **** 0.06
18010 H 96.96326513798255 106.23763776478964 263.62912823302577 H 0.0 **** 0.06
18011 C 192.4805347716836 146.54476580863277 74.60568577661843 C 0.0 **** -0.24
18012 H 193.06267871991014 146.01832562870464 75.3627746191255 H 0.0 **** 0.06
18013 H 191.73019494374904 147.16840682718754 75.0933428076753 H 0.0 **** 0.06
18014 H 191.98579827271607 145.81887034787707 73.95993665413579 H 0.0 **** 0.06
18015 H 193.14218750202355 147.17150256303182 74.00881724054477 H 0.0 **** 0.06
18016 C 100.64366296433218 60.228855253854874 272.6853163420233 C 0.0 **** -0.24
18017 H 100.48985536005898 61.307495281553145 272.67801858366147 H 0.0 **** 0.06
18018 H 99.84433399579862 59.752033695792534 273.25327651246 H 0.0 **** 0.06
18019 H 101.60444364354154 60.001273485487815 273.1486924116433 H 0.0 **** 0.06
18020 H 100.63687577062075 59.854303130207256 271.6616855536761 H 0.0 **** 0.06
18021 C 181.94923348387601 237.32556152365356 252.136905404546 C 0.0 **** -0.24
18022 H 180.92738987941863 237.12983864503906 252.4625901520222 H 0.0 **** 0.06
18023 H 182.6203544790572 237.26758226104772 252.99401354603864 H 0.0 **** 0.06
18024 H 182.0064512736401 238.3204295452362 251.6970576048438 H 0.0 **** 0.06
18025 H 182.2415280714493 236.58258749635175 251.39508546874316 H 0.0 **** 0.06
18026 C 136.89016004344631 233.0495086679898 35.690859105971754 C 0.0 **** -0.24
18027 H 136.13729155306973 233.7328791846768 35.295900714873426 H 0.0 **** 0.06
18028 H 136.7635490335833 232.9552931974498 36.76963639984547 H 0.0 **** 0.06
18029 H 137.8837415870554 233.43975018763825 35.47343643819707 H 0.0 **** 0.06
18030 H 136.77322195022865 232.07195588443656 35.223716317331 H 0.0 **** 0.06
18031 C 93.57334725632847 66.29804785826505 225.73202596371007 C 0.0 **** -0.24
18032 H 93.00504240649406 65.5300862975927 226.25700404895125 H 0.0 **** 0.06
18033 H 93.38021984975492 67.26934349312418 226.189642564795 H 0.0 **** 0.06
18034 H 93.27030869233863 66.32327035064819 224.6856886371765 H 0.0 **** 0.06
18035 H 94.63731950900066 66.0709783742492 225.7973623536515 H 0.0 **** 0.06
18036 C 309.48013261485994 161.19133293462204 101.93159709950368 C 0.0 **** -0.24
18037 H 309.81113317126767 160.1532322679725 101.88887717769217 H 0.0 **** 0.06
18038 H 308.4000389357871 161.22284853367353 102.0729787074005 H 0.0 **** 0.06
18039 H 309.7391753630556 161.69299436678074 100.99870695789764 H 0.0 **** 0.06
18040 H 309.9723070144575 161.6957631744749 102.76332652969776 H 0.0 **** 0.06
18041 C 55.239181835565944 314.10532303609284 99.55668854481345 C 0.0 **** -0.24
18042 H 54.76083275440652 313.39822017441765 100.23426588261307 H 0.0 **** 0.06
18043 H 55.40767065429475 315.0487369123188 100.07674924276765 H 0.0 **** 0.06
18044 H 54.59473309040686 314.27628166939036 98.69461586299371 H 0.0 **** 0.06
18045 H 56.193169646741126 313.6992885935521 99.22173237863169 H 0.0 **** 0.06
18046 C 287.3128177955976 303.6996259970464 23.245479067496973 C 0.0 **** -0.24
18047 H 287.3990766771445 304.78486859521814 23.304633619820834 H 0.0 **** 0.06
18048 H 286.26830450886325 303.4122393585277 23.369898793331032 H 0.0 **** 0.06
18049 H 287.91215165969754 303.2432275645384 24.032609765325248 H 0.0 **** 0.06
18050 H 287.6698458776784 303.3600796084084 22.272833422026622 H 0.0 **** 0.06
18051 C 287.1613737731126 9.176326217251471 246.73218362827095 C 0.0 **** -0.24
18052 H 286.2409504567047 9.745761984347382 246.60238695450573 H 0.0 **** 0.06
18053 H 287.36223581910883 9.050203713288496 247.796055285141 H 0.0 **** 0.06
18054 H 287.9877790048884 9.712604562026627 246.26705001918916 H 0.0 **** 0.06
18055 H 287.052623594173 8.199050637665238 246.26329112033784 H 0.0 **** 0.06
18056 C 184.31761927683885 204.44228578908798 94.7309589996018 C 0.0 **** -0.24
18057 H 185.2042571797918 204.8269570319669 95.23613680918783 H 0.0 **** 0.06
18058 H 183.43315011003546 204.6761306195125 95.32462072487732 H 0.0 **** 0.06
18059 H 184.40359118636195 203.36210299058837 94.61716841044563 H 0.0 **** 0.06
18060 H 184.22949549817764 204.9056364804697 93.74893726836282 H 0.0 **** 0.06
18061 C 61.04374250435771 82.40030453088283 278.47465229343993 C 0.0 **** -0.24
18062 H 61.30124151418681 82.88424760910956 277.5328961127845 H 0.0 **** 0.06
18063 H 60.519244190836474 83.10978980382953 279.1154163067682 H 0.0 **** 0.06
18064 H 61.95509014924235 82.06616141454225 278.97192606526255 H 0.0 **** 0.06
18065 H 60.40081301830048 81.54217898428786 278.2791719325454 H 0.0 **** 0.06
18066 C 174.72488439109446 94.05035699120495 145.8041516780771 C 0.0 **** -0.24
18067 H 175.0785240281246 93.02325713607615 145.71157065007552 H 0.0 **** 0.06
18068 H 174.78597553823425 94.36207885074117 146.847848814915 H 0.0 **** 0.06
18069 H 173.69014611035385 94.10963534012237 145.4673281105944 H 0.0 **** 0.06
18070 H 175.34470039754945 94.70507087990515 145.19231739675743 H 0.0 **** 0.06
18071 C 144.89215589501976 186.2728147306077 228.77621910070533 C 0.0 **** -0.24
18072 H 145.50443701391941 185.45955581419054 228.3882808191863 H 0.0 **** 0.06
18073 H 144.02722311433914 185.8608306221111 229.2947513783368 H 0.0 **** 0.06
18074 H 144.5571702053337 186.89988287803476 227.95025937163618 H 0.0 **** 0.06
18075 H 145.48160657898146 186.87146347170165 229.47036528413057 H 0.0 **** 0.06
18076 C 290.94604594640396 283.0635456022769 185.1844371911115 C 0.0 **** -0.24
18077 H 290.10700226822286 282.81486305905577 184.53501664446276 H 0.0 **** 0.06
18078 H 290.9588393521867 282.3847698585782 186.03740563722488 H 0.0 **** 0.06
18079 H 290.84059689919746 284.08976244175847 185.53703448099543 H 0.0 **** 0.06
18080 H 291.8779190876522 282.96464058527454 184.6273181749268 H 0.0 **** 0.06
18081 C 22.12806040907185 20.75777438176759 94.81846627228549 C 0.0 **** -0.24
18082 H 22.889813199386253 21.52541668733633 94.68358734348956 H 0.0 **** 0.06
18083 H 22.136951037760042 20.08400280423848 93.96176961219567 H 0.0 **** 0.06
18084 H 21.148911674025413 21.229524724965472 94.9013259035224 H 0.0 **** 0.06
18085 H 22.338327626764766 20.19385149259584 95.72729135036272 H 0.0 **** 0.06
18086 C 189.759118348696 4.853940695333563 212.98837210845315 C 0.0 **** -0.24
18087 H 188.8191904766175 5.229808454239844 212.58418357190465 H 0.0 **** 0.06
18088 H 190.45436706936988 4.66123004936037 212.1714325927285 H 0.0 **** 0.06
18089 H 189.57521556197548 3.9291092768150975 213.53597503608526 H 0.0 **** 0.06
18090 H 190.18624351500682 5.595852089140692 213.66280366487015 H 0.0 **** 0.06
18091 C 41.79557630642165 108.71065731819522 172.49346079823414 C 0.0 **** -0.24
18092 H 41.88513020920516 108.5512682756391 171.41882105286408 H 0.0 **** 0.06
18093 H 41.9335638973144 107.76160751739235 173.01329755981402 H 0.0 **** 0.06
18094 H 40.80613404638751 109.1085452855167 172.72052143530004 H 0.0 **** 0.06
18095 H 42.55686832787433 109.41841973327385 172.82027904775128 H 0.0 **** 0.06
18096 C 47.16109603854912 101.53725653297758 47.09579714033387 C 0.0 **** -0.24
18097 H 47.59488570103099 102.04476608840909 47.95701019572206 H 0.0 **** 0.06
18098 H 47.44224991716925 100.48384535904421 47.114895557692165 H 0.0 **** 0.06
18099 H 47.53005816793052 101.99612370573482 46.179432471003366 H 0.0 **** 0.06
18100 H 46.074241098026874 101.62419743707676 47.133665029793775 H 0.0 **** 0.06
18101 C 166.06125696043927 62.807132782039275 51.7388373169868 C 0.0 **** -0.24
18102 H 165.26970771490159 63.27033720214973 51.150155055484845 H 0.0 **** 0.06
18103 H 165.62010107303507 62.15902495628143 52.49595030601188 H 0.0 **** 0.06
18104 H 166.65390092501332 63.58333320321603 52.22461442073319 H 0.0 **** 0.06
18105 H 166.70343546291912 62.216552555267356 51.0845735156347 H 0.0 **** 0.06
18106 C 32.21570209088583 0.7223047004366663 271.9228191495845 C 0.0 **** -0.24
18107 H 32.690043682184466 -0.10381581268143236 271.3932114628328 H 0.0 **** 0.06
18108 H 31.861157685593497 0.37454547831151785 272.8937239561495 H 0.0 **** 0.06
18109 H 31.37361847549107 1.0922589477114002 271.3390072075034 H 0.0 **** 0.06
18110 H 32.93912110084858 1.5245679978830253 272.06631090912003 H 0.0 **** 0.06
18111 C 203.29392261639777 26.399974836593714 182.35050718774704 C 0.0 **** -0.24
18112 H 203.51508922947454 27.161103756467753 183.09877080884502 H 0.0 **** 0.06
18113 H 202.34823809123566 26.635786820079716 181.86221236040694 H 0.0 **** 0.06
18114 H 203.21990260939117 25.425955943083267 182.83418020096872 H 0.0 **** 0.06
18115 H 204.09198942162465 26.37764642516865 181.6084228486311 H 0.0 **** 0.06
18116 C 297.2432532039222 119.81467921090774 172.78312396099602 C 0.0 **** -0.24
18117 H 298.3211148704183 119.88404310448294 172.92216430881751 H 0.0 **** 0.06
18118 H 297.0258075734473 119.10649872041856 171.9829151474512 H 0.0 **** 0.06
18119 H 296.8470231674494 120.79545153000129 172.51767006295853 H 0.0 **** 0.06
18120 H 296.7779816543823 119.47339647163162 173.70765618068407 H 0.0 **** 0.06
18121 C 69.00755616146995 28.884274522673394 7.821748780750639 C 0.0 **** -0.24
18122 H 68.91809826502998 29.968205008757963 7.895276578191968 H 0.0 **** 0.06
18123 H 69.45257993955511 28.492958825357732 8.736329673727184 H 0.0 **** 0.06
18124 H 69.63902227559001 28.629522522182413 6.970564714185102 H 0.0 **** 0.06
18125 H 68.01813326107998 28.447194340016864 7.683189793400501 H 0.0 **** 0.06
18126 C 292.1924244501116 270.41006056945184 38.58891628944221 C 0.0 **** -0.24
18127 H 292.0163488005898 271.4855090281343 38.60944256293237 H 0.0 **** 0.06
18128 H 291.42800752152175 269.9052943193302 39.17884775803583 H 0.0 **** 0.06
18129 H 293.17611222596895 270.19534948378 39.00771560165643 H 0.0 **** 0.06
18130 H 292.1515303675253 270.05587114685153 37.55893091266586 H 0.0 **** 0.06
18131 C 147.95773792847842 141.5763859367503 196.06021064576908 C 0.0 **** -0.24
18132 H 147.31344204263053 140.82475614785827 196.5164198327343 H 0.0 **** 0.06
18133 H 148.8134405641921 141.76318762609435 196.7090283998109 H 0.0 **** 0.06
18134 H 147.3962656581652 142.5005069299254 195.92298590496443 H 0.0 **** 0.06
18135 H 148.3066489982216 141.21519343916975 195.09216601845156 H 0.0 **** 0.06
18136 C 178.7353117642832 148.20012184715785 222.55806549285091 C 0.0 **** -0.24
18137 H 178.34121347080156 147.224234093581 222.83937843532428 H 0.0 **** 0.06
18138 H 179.44975402485926 148.0834662985663 221.74291269057176 H 0.0 **** 0.06
18139 H 179.23318827190803 148.65255782667174 223.4160183004452 H 0.0 **** 0.06
18140 H 177.91563091615143 148.8428145095699 222.2343807603827 H 0.0 **** 0.06
18141 C 48.378640477315884 171.91250033243824 205.68929747428592 C 0.0 **** -0.24
18142 H 49.41309772040344 171.80988968399777 206.01844428179106 H 0.0 **** 0.06
18143 H 48.211698704450015 171.2835708237157 204.81476819060452 H 0.0 **** 0.06
18144 H 48.18165058581667 172.95302696252014 205.43190154753688 H 0.0 **** 0.06
18145 H 47.71015222669499 171.603960570161 206.49288195805298 H 0.0 **** 0.06
18146 C 258.6315044483387 99.63334370865985 15.433569403588493 C 0.0 **** -0.24
18147 H 258.36949930960907 100.20863992305058 14.545306534121437 H 0.0 **** 0.06
18148 H 258.2312290887081 100.12864983424461 16.318324075482835 H 0.0 **** 0.06
18149 H 259.71629110058956 99.56553337112337 15.513557062719954 H 0.0 **** 0.06
18150 H 258.20908664754376 98.6314442150435 15.354810545453944 H 0.0 **** 0.06
18151 C 149.52519679118456 159.76986869399474 17.81405502911153 C 0.0 **** -0.24
18152 H 149.72330342674792 158.74402546845096 18.124588098482363 H 0.0 **** 0.06
18153 H 150.05626009901414 160.45782275591023 18.47303175728392 H 0.0 **** 0.06
18154 H 148.4549441628929 159.96532972756762 17.869855028062005 H 0.0 **** 0.06
18155 H 149.86765124200593 159.91140642801088 16.78817473576835 H 0.0 **** 0.06
18156 C 190.57796149123777 70.11540313088997 285.36145838838667 C 0.0 **** -0.24
18157 H 190.63908132199106 70.80243488295548 284.5174097593541 H 0.0 **** 0.06
18158 H 190.13004528279993 70.62669637635972 286.2133748373337 H 0.0 **** 0.06
18159 H 191.57958276367452 69.77572162322136 285.6265577160198 H 0.0 **** 0.06
18160 H 189.96326981592676 69.25735610626162 285.0876997319617 H 0.0 **** 0.06
18161 C 39.3837510768052 65.54991694205592 175.29406924523107 C 0.0 **** -0.24
18162 H 39.82486806391597 65.6005853047171 176.29024938810716 H 0.0 **** 0.06
18163 H 40.0426480402507 64.98418738758906 174.63406529043084 H 0.0 **** 0.06
18164 H 39.25524905341615 66.55823545587191 174.90242100013114 H 0.0 **** 0.06
18165 H 38.41391929645397 65.05567752987491 175.35159377432478 H 0.0 **** 0.06
18166 C 152.7959852002727 87.73922514628762 68.67557034562876 C 0.0 **** -0.24
18167 H 152.5257012574951 87.84777188188963 67.62502641598991 H 0.0 **** 0.06
18168 H 151.9270545386231 87.95398969184657 69.29794486873547 H 0.0 **** 0.06
18169 H 153.59825539983422 88.43557924785978 68.91737364826454 H 0.0 **** 0.06
18170 H 153.13251990434486 86.71875619797231 68.85989036787217 H 0.0 **** 0.06
18171 C 76.8210164157135 89.30780034200302 119.67192712830493 C 0.0 **** -0.24
18172 H 77.53833822043259 88.72049352590636 119.09922172468063 H 0.0 **** 0.06
18173 H 75.89263396390939 88.74613450372308 119.77617615615912 H 0.0 **** 0.06
18174 H 76.62208621722101 90.24575992824703 119.15173778882462 H 0.0 **** 0.06
18175 H 77.23134347428487 89.5208328799533 120.65837995892417 H 0.0 **** 0.06
18176 C 31.33441254937773 93.9341605473503 295.49763380365215 C 0.0 **** -0.24
18177 H 31.438367216467384 94.23142411753608 296.54062716031405 H 0.0 **** 0.06
18178 H 30.279852262279235 93.78321998792495 295.2652227412931 H 0.0 **** 0.06
18179 H 31.880135280938532 93.00563335747498 295.3283461482945 H 0.0 **** 0.06
18180 H 31.740211777636887 94.71634468082294 294.8552621649259 H 0.0 **** 0.06
18181 C 256.0447493585301 12.594440565894388 51.90942133846559 C 0.0 **** -0.24
18182 H 256.50878321409476 12.707173214501225 50.929883039981235 H 0.0 **** 0.06
18183 H 256.6031676726442 11.864863712365846 52.4951806296921 H 0.0 **** 0.06
18184 H 255.01652296809044 12.25233819907875 51.78618247800341 H 0.0 **** 0.06
18185 H 256.04866019397275 13.555348059501242 52.42514204732731 H 0.0 **** 0.06
18186 C 243.26177998681072 298.6548108304148 9.349788573334322 C 0.0 **** -0.24
18187 H 242.44424798808694 298.97315774942797 9.996036216828898 H 0.0 **** 0.06
18188 H 244.1605900631351 298.50476201743487 9.948543242518198 H 0.0 **** 0.06
18189 H 243.44903396444667 299.42137676777526 8.59756522658644 H 0.0 **** 0.06
18190 H 242.9921699387172 297.7208359257247 8.857227260273959 H 0.0 **** 0.06
18191 C 78.65953925829012 132.72494261981524 308.8772354317963 C 0.0 **** -0.24
18192 H 78.98388297359367 132.77563837898452 307.8380523669127 H 0.0 **** 0.06
18193 H 77.91203597655127 131.93993479358383 308.9873076900497 H 0.0 **** 0.06
18194 H 78.22820470297114 133.68210397081666 309.1702917393877 H 0.0 **** 0.06
18195 H 79.51648742249893 132.50311717965542 309.51425401359603 H 0.0 **** 0.06
18196 C 60.353965457559696 57.88033482541363 280.20584509171374 C 0.0 **** -0.24
18197 H 60.41814177205342 56.88015538264261 280.6354889409895 H 0.0 **** 0.06
18198 H 59.32255034366108 58.22968483983709 280.2538740463816 H 0.0 **** 0.06
18199 H 60.68035254297439 57.85024727402049 279.16634446199544 H 0.0 **** 0.06
18200 H 60.99509407071267 58.559310909936244 280.76874821982744 H 0.0 **** 0.06
18201 C 239.70179595915633 232.0907620710019 13.25740473757702 C 0.0 **** -0.24
18202 H 239.83093299343827 233.14109283832425 13.520555379060596 H 0.0 **** 0.06
18203 H 240.15879297270175 231.90194916292046 12.286348733867968 H 0.0 **** 0.06
18204 H 238.63856600756134 231.85648370877823 13.211219608458592 H 0.0 **** 0.06
18205 H 240.17927202092434 231.46637992840024 14.012326520785706 H 0.0 **** 0.06
18206 C 169.1589680053287 48.738621036894074 245.307971781312 C 0.0 **** -0.24
18207 H 169.96979967559918 48.15484646888842 245.74511890956836 H 0.0 **** 0.06
18208 H 168.20665557415617 48.24745476632532 245.51136077897678 H 0.0 **** 0.06
18209 H 169.30659008600128 48.813455644646496 244.230513265334 H 0.0 **** 0.06
18210 H 169.15436865751656 49.73721553938228 245.74431363503177 H 0.0 **** 0.06
18211 C 61.44076314403577 195.26721211230398 225.92787215986164 C 0.0 **** -0.24
18212 H 62.28274092668559 194.94359086874073 225.31633961612434 H 0.0 **** 0.06
18213 H 61.80380224172069 195.8800647573364 226.75313732968775 H 0.0 **** 0.06
18214 H 60.92286475221306 194.3928230029182 226.32351378621317 H 0.0 **** 0.06
18215 H 60.75152684936407 195.85125947424194 225.316987256932 H 0.0 **** 0.06
18216 C 78.41220685414893 35.39934117377325 188.64125196514613 C 0.0 **** -0.24
18217 H 79.40761940587137 35.59283940699561 188.24075397740603 H 0.0 **** 0.06
18218 H 78.4230841830171 35.53707873944293 189.72234650104417 H 0.0 **** 0.06
18219 H 78.1212284849639 34.37543557976315 188.40827284658423 H 0.0 **** 0.06
18220 H 77.699321798873 36.091190387083486 188.19207280680428 H 0.0 **** 0.06
18221 C 109.07881178578609 94.0532664207158 164.08923379988607 C 0.0 **** -0.24
18222 H 108.8186551078395 94.20730383998239 163.04161968679966 H 0.0 **** 0.06
18223 H 108.16691189396434 93.96958063291711 164.68042465402493 H 0.0 **** 0.06
18224 H 109.66681895036822 94.89955751896642 164.44512465912658 H 0.0 **** 0.06
18225 H 109.66192306415849 93.13772601478772 164.18779013599095 H 0.0 **** 0.06
18226 C 294.72622427113686 45.243789989030034 74.79756456559159 C 0.0 **** -0.24
18227 H 295.50010680072273 45.63700649838833 74.13807540068575 H 0.0 **** 0.06
18228 H 295.00452112624885 44.24397678016143 75.12887220520275 H 0.0 **** 0.06
18229 H 293.78032142860764 45.19819560772146 74.25844369607591 H 0.0 **** 0.06
18230 H 294.6199776069519 45.89773243586731 75.66315469541257 H 0.0 **** 0.06
18231 C 48.90373693290755 64.4660872637563 212.50553200774257 C 0.0 **** -0.24
18232 H 49.63783023736997 65.2148296575188 212.20784223939395 H 0.0 **** 0.06
18233 H 48.8265699881845 64.44457762942054 213.59269020655276 H 0.0 **** 0.06
18234 H 49.217343492695704 63.48599537729319 212.14378599562323 H 0.0 **** 0.06
18235 H 47.93390786049139 64.71743345142008 212.0763210880689 H 0.0 **** 0.06
18236 C 275.253809080417 170.30153957590295 202.6276046014454 C 0.0 **** -0.24
18237 H 274.79438731864576 171.2365988048507 202.95011853764305 H 0.0 **** 0.06
18238 H 275.7275788141222 169.8163988664665 203.4810394740158 H 0.0 **** 0.06
18239 H 276.00304023510375 170.50876902454536 201.86429340858376 H 0.0 **** 0.06
18240 H 274.48738283377264 169.64475709316446 202.21583897665602 H 0.0 **** 0.06
18241 C 56.47042232110428 84.4001407268403 57.3371196587747 C 0.0 **** -0.24
18242 H 56.95101862565562 83.66848294056445 56.68823182378901 H 0.0 **** 0.06
18243 H 57.0631778041498 84.52740448204324 58.24255558724843 H 0.0 **** 0.06
18244 H 55.47263292985099 84.05006378049495 57.60253596280742 H 0.0 **** 0.06
18245 H 56.394197883293856 85.35393829905945 56.81482627639588 H 0.0 **** 0.06
18246 C 309.8301158414525 255.52223454949427 199.1931895123584 C 0.0 **** -0.24
18247 H 310.88056738385103 255.25632124513862 199.074618765131 H 0.0 **** 0.06
18248 H 309.75186823531266 256.4478694210216 199.764273351209 H 0.0 **** 0.06
18249 H 309.311315608055 254.72318333265207 199.72296288041719 H 0.0 **** 0.06
18250 H 309.3777828898595 255.66096855589672 198.21212727256164 H 0.0 **** 0.06
18251 C 109.49662982803414 201.8017326758512 43.87616733878485 C 0.0 **** -0.24
18252 H 109.58347335335242 202.81665045356056 43.48860772377088 H 0.0 **** 0.06
18253 H 110.43792833694374 201.27307893993492 43.721918513808305 H 0.0 **** 0.06
18254 H 108.69544624590034 201.28037672830254 43.35186285104203 H 0.0 **** 0.06
18255 H 109.26957467637956 201.8382315943507 44.94238502022654 H 0.0 **** 0.06
18256 C 213.78675580291343 135.78444550045373 0.9597839006743811 C 0.0 **** -0.24
18257 H 214.68873703893172 135.26797594722996 1.2879232001836272 H 0.0 **** 0.06
18258 H 213.46105903867507 136.474341837474 1.7385264855836908 H 0.0 **** 0.06
18259 H 213.00010391216 135.05461857735588 0.7673110015642806 H 0.0 **** 0.06
18260 H 213.9992531962726 136.339300321044 0.04681548460200702 H 0.0 **** 0.06
18261 C 286.5137833473649 189.16848117031088 167.91545955484503 C 0.0 **** -0.24
18262 H 287.08098685266566 189.90711371558837 167.34981258653897 H 0.0 **** 0.06
18263 H 285.48923949073145 189.51651685504635 168.04428266934025 H 0.0 **** 0.06
18264 H 286.97537167215216 189.02562229631428 168.89279722064867 H 0.0 **** 0.06
18265 H 286.510071108367 188.22192981808 167.37450474242786 H 0.0 **** 0.06
18266 C 292.4845794766237 212.3781401448874 77.72901292139244 C 0.0 **** -0.24
18267 H 293.5556878901138 212.48101694489912 77.55440340960979 H 0.0 **** 0.06
18268 H 292.2757311357499 212.51739278149938 78.78977086935464 H 0.0 **** 0.06
18269 H 292.16020097040337 211.3841542105628 77.42175098928419 H 0.0 **** 0.06
18270 H 291.94824414933987 213.13094952389713 77.15096378213502 H 0.0 **** 0.06
18271 C 250.26550990027096 299.79462352983046 170.26099413264785 C 0.0 **** -0.24
18272 H 250.83019640021553 300.3812553185778 170.98634898088284 H 0.0 **** 0.06
18273 H 249.75780463561134 298.97666336585763 170.77263745233728 H 0.0 **** 0.06
18274 H 250.947807846141 299.38888401292695 169.51352753751274 H 0.0 **** 0.06
18275 H 249.5289403272377 300.4324117583132 169.77372953976652 H 0.0 **** 0.06
18276 C 249.65454790241168 50.76949265589215 181.1718632633458 C 0.0 **** -0.24
18277 H 248.59736693566424 50.50633181499515 181.18353032975767 H 0.0 **** 0.06
18278 H 250.242112494377 49.93261899126057 181.5486452522838 H 0.0 **** 0.06
18279 H 249.81845819058782 51.642872662620675 181.8034249255299 H 0.0 **** 0.06
18280 H 249.9606571144551 50.99832708735846 180.1508107154653 H 0.0 **** 0.06
18281 C 50.62065089616971 130.4103821728816 312.5438879724274 C 0.0 **** -0.24
18282 H 50.491719513927876 129.44398508592946 313.03090410899165 H 0.0 **** 0.06
18283 H 51.53827518188686 130.8774676296351 312.9014116722713 H 0.0 **** 0.06
18284 H 49.77093599724529 131.0519961838748 312.77843094087837 H 0.0 **** 0.06
18285 H 50.68073178582998 130.26775149231904 311.46488606045824 H 0.0 **** 0.06
18286 C 247.7900199293857 141.19405097570234 296.21339610407193 C 0.0 **** -0.24
18287 H 247.01019128711886 141.76121462627466 295.7046250017076 H 0.0 **** 0.06
18288 H 248.68673318202832 141.17564414282103 295.59372531854626 H 0.0 **** 0.06
18289 H 247.44532319988474 140.17487809875234 296.3845602234316 H 0.0 **** 0.06
18290 H 248.0178128821135 141.66645833923204 297.1692475602352 H 0.0 **** 0.06
18291 C 165.72496080919012 223.36879664818264 81.5335767095425 C 0.0 **** -0.24
18292 H 165.89054995297784 223.8799037784015 80.58559934521455 H 0.0 **** 0.06
18293 H 165.30599824876475 222.37989758411356 81.34363627043751 H 0.0 **** 0.06
18294 H 165.03057270646917 223.947409865586 82.14214819580928 H 0.0 **** 0.06
18295 H 166.67329417839113 223.26654713723372 82.06130032008747 H 0.0 **** 0.06
18296 C 271.4224530172004 231.50990780793978 301.4232067920752 C 0.0 **** -0.24
18297 H 270.64471355957124 232.00398247172768 302.00651281612045 H 0.0 **** 0.06
18298 H 270.9919020104936 231.12481545226223 300.49836136593774 H 0.0 **** 0.06
18299 H 271.84167046468076 230.6858480932492 302.00120218294603 H 0.0 **** 0.06
18300 H 272.20993651398805 232.22578526824722 301.1876636877356 H 0.0 **** 0.06
18301 C 174.95308620750768 196.62004160258317 223.21950169580634 C 0.0 **** -0.24
18302 H 175.49410473753068 196.65301557207835 222.27378449825198 H 0.0 **** 0.06
18303 H 175.23733489007992 195.7229593687938 223.76951942468935 H 0.0 **** 0.06
18304 H 173.8807959449548 196.60303079345834 223.02479017913407 H 0.0 **** 0.06
18305 H 175.20102549103115 197.50193209575616 223.81066463634943 H 0.0 **** 0.06
18306 C 312.9005420463437 132.0298554935207 115.67613149561336 C 0.0 **** -0.24
18307 H 313.0184659096271 131.0213257783284 115.2797363313187 H 0.0 **** 0.06
18308 H 311.8552810718251 132.19859173436106 115.93371046002252 H 0.0 **** 0.06
18309 H 313.2122947037621 132.75438847335948 114.9239044081433 H 0.0 **** 0.06
18310 H 313.5175445726876 132.14318556022133 116.56768717518776 H 0.0 **** 0.06
18311 C 99.77287230574518 82.74468721655822 223.97248963511015 C 0.0 **** -0.24
18312 H 98.92373663757081 82.66567070328026 224.65128073499943 H 0.0 **** 0.06
18313 H 99.50921279566901 83.39044754560442 223.134398581706 H 0.0 **** 0.06
18314 H 100.03285672141493 81.75351910277263 223.59917980473338 H 0.0 **** 0.06
18315 H 100.62491603516386 83.16797300199454 224.50364495441187 H 0.0 **** 0.06
18316 C 126.00809913567599 157.08045218834064 169.79197649826676 C 0.0 **** -0.24
18317 H 125.20360037347604 156.5404517612659 170.29188812360331 H 0.0 **** 0.06
18318 H 126.66015213536292 156.37138592761443 169.2818262518826 H 0.0 **** 0.06
18319 H 126.5840356256372 157.63831622488425 170.5303674694714 H 0.0 **** 0.06
18320 H 125.58274736415026 157.77262579395227 169.0650866019111 H 0.0 **** 0.06
18321 C 236.81431164596 272.9637510434565 282.707405542971 C 0.0 **** -0.24
18322 H 236.29871503936306 272.2983355234421 283.4002075905554 H 0.0 **** 0.06
18323 H 236.08067129900653 273.52679488006584 282.1306431756011 H 0.0 **** 0.06
18324 H 237.4333560757379 272.37365868748475 282.03144596102516 H 0.0 **** 0.06
18325 H 237.44506365070794 273.6540562840148 283.2674885128291 H 0.0 **** 0.06
18326 C 50.34177078703766 156.976756614267 233.12952099929817 C 0.0 **** -0.24
18327 H 49.868035377090735 157.92788506468753 232.88999485326502 H 0.0 **** 0.06
18328 H 51.23369474360845 156.85010780881743 232.51395370283774 H 0.0 **** 0.06
18329 H 49.64450315180659 156.1626578603101 232.93109868567743 H 0.0 **** 0.06
18330 H 50.622898745630096 156.96588581002953 234.18228699589682 H 0.0 **** 0.06
18331 C 29.55156867618058 123.5142542060066 160.7650511476238 C 0.0 **** -0.24
18332 H 30.058210619989836 124.25377215724001 161.38434630019742 H 0.0 **** 0.06
18333 H 28.550802873532604 123.33506357096769 161.15920705402283 H 0.0 **** 0.06
18334 H 30.11774312883395 122.58221232685239 160.7734642396788 H 0.0 **** 0.06
18335 H 29.47846885581501 123.88537303224882 159.74244927685663 H 0.0 **** 0.06
18336 C 312.7905186230687 231.07054919821664 186.35039731008806 C 0.0 **** -0.24
18337 H 311.73526665995666 231.3439073638305 186.32763855968955 H 0.0 **** 0.06
18338 H 312.8913394721636 230.04146789298622 186.69464311128917 H 0.0 **** 0.06
18339 H 313.32169702860915 231.73571588664987 187.031474493418 H 0.0 **** 0.06
18340 H 313.2105103288993 231.1633010729347 185.34907648007112 H 0.0 **** 0.06
18341 C 287.88469188847364 154.24571327747668 137.69488987516752 C 0.0 **** -0.24
18342 H 287.0751672157382 153.92928520577334 138.35330724547316 H 0.0 **** 0.06
18343 H 287.81810855585604 155.32079889414092 137.5293727325182 H 0.0 **** 0.06
18344 H 287.8021995458705 153.72462356173656 136.7412747170523 H 0.0 **** 0.06
18345 H 288.84213643257397 154.00686622926827 138.15702879254448 H 0.0 **** 0.06
18346 C 91.60581874759023 290.11423392126693 297.3524817222327 C 0.0 **** -0.24
18347 H 91.8681961814446 291.12337232716044 297.67159473371436 H 0.0 **** 0.06
18348 H 92.29505999726521 289.40038734397206 297.8047348798219 H 0.0 **** 0.06
18349 H 91.67447700578776 290.0484574295542 296.2668990012554 H 0.0 **** 0.06
18350 H 90.58805807502773 289.8873654418708 297.6675122753445 H 0.0 **** 0.06
18351 C 33.72862253509305 31.228709131566575 111.00419657514533 C 0.0 **** -0.24
18352 H 34.515368466270075 31.6030509920011 111.65889067130493 H 0.0 **** 0.06
18353 H 34.14020020884027 31.040275733162304 110.01257264274176 H 0.0 **** 0.06
18354 H 32.93231634177661 31.969339360461987 110.9330793575676 H 0.0 **** 0.06
18355 H 33.327667558045675 30.3014019439851 111.41405489046377 H 0.0 **** 0.06
18356 C 204.3579829335879 204.3222766689301 81.74089666032333 C 0.0 **** -0.24
18357 H 204.78604198867862 204.38932914663184 82.74184859095391 H 0.0 **** 0.06
18358 H 204.1555340739519 203.27822859974737 81.50200036824626 H 0.0 **** 0.06
18359 H 205.06329584020614 204.73108685593644 81.0165091326673 H 0.0 **** 0.06
18360 H 203.42881042838707 204.89044986834938 81.7046196943298 H 0.0 **** 0.06
18361 C 150.70551196995558 173.13148263638845 163.59457374613078 C 0.0 **** -0.24
18362 H 150.5208486316921 172.38462870486939 162.82228752497633 H 0.0 **** 0.06
18363 H 151.01921791527252 172.6350811655351 164.5132605876284 H 0.0 **** 0.06
18364 H 149.79062394342907 173.69510054927588 163.7808023766462 H 0.0 **** 0.06
18365 H 151.4896554045286 173.81082416532604 163.26181932233555 H 0.0 **** 0.06
18366 C 211.95390318010573 140.55935163078215 123.89733745884254 C 0.0 **** -0.24
18367 H 211.46328257327443 139.60082117782972 124.07001387957749 H 0.0 **** 0.06
18368 H 212.94986420981462 140.54125102774356 124.34026560988212 H 0.0 **** 0.06
18369 H 211.3665059771426 141.35560053257728 124.35522780054501 H 0.0 **** 0.06
18370 H 212.03533036412404 140.73744258654676 122.82537683822034 H 0.0 **** 0.06
18371 C 44.471606667411834 124.56300905235196 154.30508584789766 C 0.0 **** -0.24
18372 H 45.532931281357946 124.32439153480303 154.3757052159284 H 0.0 **** 0.06
18373 H 44.27563342143168 125.07078099750487 153.36073766624168 H 0.0 **** 0.06
18374 H 44.18910024024086 125.21234105060711 155.13303477105785 H 0.0 **** 0.06
18375 H 43.88893483067778 123.64235156627612 154.3503592257432 H 0.0 **** 0.06
18376 C 225.66862321865227 169.90021946637842 54.71446041041207 C 0.0 **** -0.24
18377 H 225.94856978347863 170.86411453166136 54.29019331170895 H 0.0 **** 0.06
18378 H 224.69484133653629 169.9842760578316 55.1963469975521 H 0.0 **** 0.06
18379 H 226.41422504322193 169.59679754379698 55.44983338312667 H 0.0 **** 0.06
18380 H 225.61781467666353 169.155158184892 53.920126392909225 H 0.0 **** 0.06
18381 C 309.4318063607027 109.72364917037623 313.58116758849667 C 0.0 **** -0.24
18382 H 309.7090685594823 108.9260742034993 312.8910290512203 H 0.0 **** 0.06
18383 H 309.62243477709404 109.39957323438153 314.6040429193287 H 0.0 **** 0.06
18384 H 308.3729029995493 109.95305162392228 313.4630467399167 H 0.0 **** 0.06
18385 H 310.02310631110595 110.61315159501044 313.3647140060303 H 0.0 **** 0.06
18386 C 103.89889094240499 72.7920583103735 20.14687687582068 C 0.0 **** -0.24
18387 H 102.9839396265528 72.9424523865492 19.573574108611794 H 0.0 **** 0.06
18388 H 103.68019871839078 72.19104657436841 21.029199351859347 H 0.0 **** 0.06
18389 H 104.29749297463914 73.75931398824162 20.45437033526447 H 0.0 **** 0.06
18390 H 104.63341926140467 72.27767889351668 19.527787778168488 H 0.0 **** 0.06
18391 C 243.31733772231996 274.7368679965316 96.80909676050157 C 0.0 **** -0.24
18392 H 242.3848304262132 275.26005662703403 96.59505201259833 H 0.0 **** 0.06
18393 H 243.24124679579842 274.24290655532366 97.77825444618975 H 0.0 **** 0.06
18394 H 244.13921856973056 275.4512853602365 96.82777949593967 H 0.0 **** 0.06
18395 H 243.50066593318104 273.99167827631993 96.03494600096408 H 0.0 **** 0.06
18396 C 299.05623332909624 280.7861094847849 92.45443328348298 C 0.0 **** -0.24
18397 H 298.70978852460905 279.82714583892096 92.84023514323633 H 0.0 **** 0.06
18398 H 299.5189393854424 281.35602590032283 93.26098318312637 H 0.0 **** 0.06
18399 H 298.2102449686647 281.34364911737896 92.0536969640755 H 0.0 **** 0.06
18400 H 299.786622782282 280.61637911970513 91.66383212215317 H 0.0 **** 0.06
18401 C 239.53274957698713 60.21828441926772 301.4719082175769 C 0.0 **** -0.24
18402 H 239.82675666090466 61.26673401964325 301.5304370529264 H 0.0 **** 0.06
18403 H 239.05290631268974 59.923164991938165 302.4049078499726 H 0.0 **** 0.06
18404 H 240.41558952245094 59.60201648218347 301.30605646438016 H 0.0 **** 0.06
18405 H 238.8344421950453 60.08322097088518 300.64567882019105 H 0.0 **** 0.06
18406 C 27.65890499689209 189.87594796876567 64.00818883058378 C 0.0 **** -0.24
18407 H 26.731274256252505 190.17434695158164 64.49558764212793 H 0.0 **** 0.06
18408 H 28.48304375971486 189.95496609021978 64.71723804359536 H 0.0 **** 0.06
18409 H 27.847553705109533 190.52940443997687 63.156319324239035 H 0.0 **** 0.06
18410 H 27.572734996326403 188.84600440498411 63.66328111514156 H 0.0 **** 0.06
18411 C 218.6383316496238 177.53836727215366 235.76245289075555 C 0.0 **** -0.24
18412 H 218.45889243703516 176.4894356813802 235.99687011212455 H 0.0 **** 0.06
18413 H 217.82356448988742 178.14391656206925 236.16058840423543 H 0.0 **** 0.06
18414 H 218.69131774941332 177.66528840381727 234.6819503031362 H 0.0 **** 0.06
18415 H 219.57980202475122 177.85419277834455 236.21253192265297 H 0.0 **** 0.06
18416 C 111.43242629439357 186.03996079466702 87.63151052168007 C 0.0 **** -0.24
18417 H 111.98059639881501 185.61860882948974 86.7893582764446 H 0.0 **** 0.06
18418 H 112.12431288587814 186.56720074163627 88.28779653373857 H 0.0 **** 0.06
18419 H 110.94524337080526 185.23698725309112 88.18514455494068 H 0.0 **** 0.06
18420 H 110.6783341484375 186.73524022125054 87.26262313437044 H 0.0 **** 0.06
18421 C 209.0673455800345 68.14129523782799 103.05594179725159 C 0.0 **** -0.24
18422 H 208.90161458902418 68.6546404563581 102.10931025823317 H 0.0 **** 0.06
18423 H 208.99507521291844 68.85689870466013 103.87493082160995 H 0.0 **** 0.06
18424 H 210.05964359572437 67.68874844958623 103.05475497659262 H 0.0 **** 0.06
18425 H 208.3141312215475 67.36422208921039 103.18538599771222 H 0.0 **** 0.06
18426 C 200.83579326156655 84.0491646748558 267.7226382996155 C 0.0 **** -0.24
18427 H 200.0234015888983 83.52618075325637 267.21890530091224 H 0.0 **** 0.06
18428 H 201.75283898234102 83.94212370228149 267.14240668152667 H 0.0 **** 0.06
18429 H 200.98224713014804 83.62147935722228 268.7152066297278 H 0.0 **** 0.06
18430 H 200.58543035025167 85.10543001396351 267.81556994696655 H 0.0 **** 0.06
18431 C 193.27793189486698 101.30481328472393 278.1032734385253 C 0.0 **** -0.24
18432 H 194.06937571510372 100.68842173839533 278.53284706825787 H 0.0 **** 0.06
18433 H 193.46124754793772 102.35159820637361 278.34635994714387 H 0.0 **** 0.06
18434 H 192.3160610768636 100.99837726097954 278.51455417407345 H 0.0 **** 0.06
18435 H 193.26738892303837 101.17893761700458 277.02101122070917 H 0.0 **** 0.06
18436 C 198.2876954555033 90.52889428759204 254.45718207294334 C 0.0 **** -0.24
18437 H 199.29722288307863 90.17886822540663 254.23997599099079 H 0.0 **** 0.06
18438 H 197.93156386910425 91.14361882107585 253.62975389075706 H 0.0 **** 0.06
18439 H 198.2973639717091 91.11992110497613 255.3720810637676 H 0.0 **** 0.06
18440 H 197.62566469162147 89.67188631842293 254.58441006570476 H 0.0 **** 0.06
18441 C 227.5704236972682 99.84683639508808 298.20655653630814 C 0.0 **** -0.24
18442 H 228.09714701299916 100.74782881219772 298.5217986102275 H 0.0 **** 0.06
18443 H 226.84823093154694 99.56304985396136 298.97358141765955 H 0.0 **** 0.06
18444 H 228.28622420718705 99.03837460323109 298.0633311760964 H 0.0 **** 0.06
18445 H 227.04845257138038 100.04054437468506 297.26981659938804 H 0.0 **** 0.06
18446 C 82.43034765411676 214.78871282666432 5.814610846559617 C 0.0 **** -0.24
18447 H 83.23379824790962 215.08837752114854 5.142680375163366 H 0.0 **** 0.06
18448 H 81.59563334158861 214.39831123591733 5.23217633037325 H 0.0 **** 0.06
18449 H 82.09862669966807 215.65164225461908 6.392535031294983 H 0.0 **** 0.06
18450 H 82.79344798191877 214.0155390135102 6.492474226016554 H 0.0 **** 0.06
18451 C 61.914214426559624 47.87778388626748 273.86150552630033 C 0.0 **** -0.24
18452 H 62.66752221426481 48.617726695194335 274.1311541209973 H 0.0 **** 0.06
18453 H 62.39974178629001 47.01761132445915 273.39946039713465 H 0.0 **** 0.06
18454 H 61.2083756982814 48.31858036599954 273.15745900549354 H 0.0 **** 0.06
18455 H 61.38181330232425 47.558324358034895 274.7573007049036 H 0.0 **** 0.06
18456 C 60.57465561953572 132.5568735340773 214.35781910124652 C 0.0 **** -0.24
18457 H 61.2453853089101 133.41494516354706 214.38313918410236 H 0.0 **** 0.06
18458 H 60.94120733134494 131.8308046157844 213.63152775295663 H 0.0 **** 0.06
18459 H 59.57583836874261 132.88533603919242 214.07074449171046 H 0.0 **** 0.06
18460 H 60.535672487584634 132.09606951097504 215.34459380467396 H 0.0 **** 0.06
18461 C 273.4911178706037 93.88425993786467 131.87032722634805 C 0.0 **** -0.24
18462 H 273.3492443199078 94.95901423307936 131.9780790001902 H 0.0 **** 0.06
18463 H 272.9616749251584 93.53524009979293 130.98292501941575 H 0.0 **** 0.06
18464 H 273.0977120250884 93.37641202659944 132.75102790797598 H 0.0 **** 0.06
18465 H 274.5544725984084 93.66634851983068 131.76963617515648 H 0.0 **** 0.06
18466 C 160.5778871799974 75.70780186417755 311.59056597794034 C 0.0 **** -0.24
18467 H 159.72484270596448 75.05603001007373 311.782190429549 H 0.0 **** 0.06
18468 H 160.8892164603871 75.60222356646975 310.55095948721794 H 0.0 **** 0.06
18469 H 161.4022321412623 75.42777471420678 312.2476341153842 H 0.0 **** 0.06
18470 H 160.29520113354994 76.74218338059993 311.7837208985328 H 0.0 **** 0.06
18471 C 43.12794059257257 296.92218920893913 134.8187813850086 C 0.0 **** -0.24
18472 H 43.663914244879294 297.78736543339704 134.42710077583766 H 0.0 **** 0.06
18473 H 42.40582312271886 296.57780046404304 134.07786363911663 H 0.0 **** 0.06
18474 H 42.605980983969374 297.2025837935674 135.7331179692104 H 0.0 **** 0.06
18475 H 43.83654463788636 296.12336256394565 135.0349934178642 H 0.0 **** 0.06
18476 C 304.3078269019766 12.848403593477997 142.84634960512264 C 0.0 **** -0.24
18477 H 303.5724480483905 13.56855491597446 143.20537518253053 H 0.0 **** 0.06
18478 H 304.25484014359756 12.784571411532738 141.75980222784625 H 0.0 **** 0.06
18479 H 304.09860028583785 11.870475663799994 143.27914463093722 H 0.0 **** 0.06
18480 H 305.30588420590584 13.17081850087527 143.14334219135515 H 0.0 **** 0.06
18481 C 137.73601857456114 195.6698646346661 275.9572064613851 C 0.0 **** -0.24
18482 H 138.0044450343054 196.6906562846503 275.6856277587658 H 0.0 **** 0.06
18483 H 138.64067748404074 195.09831511245636 276.1633684092492 H 0.0 **** 0.06
18484 H 137.19198006375413 195.205829987075 275.13429863164316 H 0.0 **** 0.06
18485 H 137.10557734656385 195.68503416593973 276.84723797832055 H 0.0 **** 0.06
18486 C 73.51940271906335 289.3630879312194 280.51060198481616 C 0.0 **** -0.24
18487 H 72.8494448398979 289.7756296412008 279.7559251468764 H 0.0 **** 0.06
18488 H 74.02861584141107 288.4889108919384 280.10503096837874 H 0.0 **** 0.06
18489 H 72.94333396612163 289.0742348139721 281.38917754466127 H 0.0 **** 0.06
18490 H 74.2561712176508 290.1164574067899 280.79097132471014 H 0.0 **** 0.06
18491 C 108.55860045073842 6.0486029616640735 29.828101993843433 C 0.0 **** -0.24
18492 H 108.96170282028805 6.500602558368087 30.734653810655914 H 0.0 **** 0.06
18493 H 109.3422712101061 5.987776267880633 29.072425735312862 H 0.0 **** 0.06
18494 H 107.73702889019913 6.657654713133525 29.452189130299814 H 0.0 **** 0.06
18495 H 108.19445026498519 5.046236943400686 30.053695340790057 H 0.0 **** 0.06
18496 C 58.839521059416086 112.08589119636889 7.5950824553058 C 0.0 **** -0.24
18497 H 57.967537264393115 111.4351439069612 7.531650796361106 H 0.0 **** 0.06
18498 H 58.563199229397924 113.01653407337943 8.09085400782034 H 0.0 **** 0.06
18499 H 59.20472811594442 112.30233514230554 6.591275116744811 H 0.0 **** 0.06
18500 H 59.62249721113665 111.58758940304136 8.168010919691284 H 0.0 **** 0.06
18501 C 143.6123514714563 302.7907223009139 73.56129099207112 C 0.0 **** -0.24
18502 H 144.6666521663409 302.95555732801313 73.3436794128288 H 0.0 **** 0.06
18503 H 143.003893294948 303.3688491413973 72.86493306730438 H 0.0 **** 0.06
18504 H 143.3978778161628 303.10834386483344 74.58196378280738 H 0.0 **** 0.06
18505 H 143.37970076496214 301.73123728391363 73.45419992117775 H 0.0 **** 0.06
18506 C 255.86193139295716 178.30934656574215 177.71367529358565 C 0.0 **** -0.24
18507 H 255.0565448430409 178.95021064553833 177.3536640572961 H 0.0 **** 0.06
18508 H 256.8116581574129 178.83941724737565 177.63258582617505 H 0.0 **** 0.06
18509 H 255.90012552730212 177.4018762642703 177.11048194718165 H 0.0 **** 0.06
18510 H 255.67934309847422 178.04637531482393 178.7551847663898 H 0.0 **** 0.06
18511 C 22.963058055996783 195.14281023122015 5.199305881527323 C 0.0 **** -0.24
18512 H 24.044872109225764 195.26586060176493 5.218497032085452 H 0.0 **** 0.06
18513 H 22.519674176210543 195.91890877864688 4.574742727155467 H 0.0 **** 0.06
18514 H 22.569752062792276 195.2236061311471 6.21233538023472 H 0.0 **** 0.06
18515 H 22.716053827334633 194.16336910333064 4.790547597456168 H 0.0 **** 0.06
18516 C 18.042640209500235 299.4613088542383 215.077731947046 C 0.0 **** -0.24
18517 H 18.998393773001283 299.4584475028469 214.55504726004523 H 0.0 **** 0.06
18518 H 18.187349520844236 299.8158430403522 216.09864530263343 H 0.0 **** 0.06
18519 H 17.63822344115829 298.44909760480164 215.09846395066515 H 0.0 **** 0.06
18520 H 17.346087449263052 300.11968010201116 214.55898740433162 H 0.0 **** 0.06
18521 C 221.07608101714385 95.03208282528945 167.10381708803936 C 0.0 **** -0.24
18522 H 220.30923010520212 94.3006174159448 166.84777532145552 H 0.0 **** 0.06
18523 H 221.37726301301794 95.57200977795398 166.20664005041647 H 0.0 **** 0.06
18524 H 221.93902293406728 94.51891352296977 167.52764472168087 H 0.0 **** 0.06
18525 H 220.67572366906504 95.73524812579822 167.83426072359208 H 0.0 **** 0.06
18526 C 251.4911829420223 193.76531357142773 147.30821431889615 C 0.0 **** -0.24
18527 H 251.80922499531042 194.6819874711785 146.81317941448276 H 0.0 **** 0.06
18528 H 251.63755163133928 192.92053311068088 146.63625559759518 H 0.0 **** 0.06
18529 H 250.43655729975092 193.84228543347996 147.5726655185923 H 0.0 **** 0.06
18530 H 252.08232097014 193.6178197225422 148.2125642237727 H 0.0 **** 0.06
18531 C 107.47013951289378 236.6354700321529 118.23201754380025 C 0.0 **** -0.24
18532 H 107.7895914440264 236.40771025051959 119.24907373522726 H 0.0 **** 0.06
18533 H 106.776890078353 237.47616450079659 118.24914587789479 H 0.0 **** 0.06
18534 H 106.97619225293488 235.76455467364633 117.8023363967402 H 0.0 **** 0.06
18535 H 108.34006708804873 236.89433289002085 117.62819026216775 H 0.0 **** 0.06
18536 C 158.66264525184 69.46324122288482 250.60220165897283 C 0.0 **** -0.24
18537 H 158.24263760250977 68.62623916252392 250.04304114327314 H 0.0 **** 0.06
18538 H 158.063515065586 69.63943832942408 251.4959963518246 H 0.0 **** 0.06
18539 H 158.65489408319593 70.35656753414563 249.97659125533514 H 0.0 **** 0.06
18540 H 159.68721565823938 69.2296043309945 250.88995612141576 H 0.0 **** 0.06
18541 C 134.67279900512307 297.6655907226891 288.30099423042003 C 0.0 **** -0.24
18542 H 133.87856973156704 298.21073400631894 287.79150428072046 H 0.0 **** 0.06
18543 H 135.30087370681628 298.3673007135515 288.85081657682616 H 0.0 **** 0.06
18544 H 135.27923432654694 297.1352166702536 287.56528441982783 H 0.0 **** 0.06
18545 H 134.2337529385489 296.9489036721975 288.9945189738606 H 0.0 **** 0.06
18546 C 118.77909226268022 97.71604213369542 314.3559532427869 C 0.0 **** -0.24
18547 H 119.63678266644283 98.36391276368653 314.5393848980293 H 0.0 **** 0.06
18548 H 118.36893394307484 97.92989672322929 313.3682773225169 H 0.0 **** 0.06
18549 H 118.017175812217 97.8986399705199 315.1130573953127 H 0.0 **** 0.06
18550 H 119.09521815615724 96.67382931808754 314.40150779161775 H 0.0 **** 0.06
18551 C 76.83982734115489 136.45482298330447 95.23270168045906 C 0.0 **** -0.24
18552 H 77.37499185714415 135.6924352893071 95.79726459723241 H 0.0 **** 0.06
18553 H 75.88192846452102 136.6572706210647 95.71250168986529 H 0.0 **** 0.06
18554 H 76.66765365546323 136.10048094344012 94.21617804936517 H 0.0 **** 0.06
18555 H 77.43273154000804 137.368725381435 95.20266227963907 H 0.0 **** 0.06
18556 C 106.6063202592374 5.524029129179766 211.2212595268974 C 0.0 **** -0.24
18557 H 107.39309685833862 6.172269643818325 211.60788359620904 H 0.0 **** 0.06
18558 H 105.64782330588449 5.828479743915068 211.6405789273992 H 0.0 **** 0.06
18559 H 106.81587668974302 4.491934973922596 211.5010775106523 H 0.0 **** 0.06
18560 H 106.57085827871987 5.60620259552573 210.1346683793377 H 0.0 **** 0.06
18561 C 74.18863954157021 142.8521476378638 13.628067342670235 C 0.0 **** -0.24
18562 H 74.89831439988652 143.49981006829117 13.111403689621895 H 0.0 **** 0.06
18563 H 74.58172446293298 141.83584839213128 13.660354168196278 H 0.0 **** 0.06
18564 H 73.23757228501205 142.8586308598803 13.095940112018539 H 0.0 **** 0.06
18565 H 74.03914884971547 143.21732188333402 14.644737721362631 H 0.0 **** 0.06
18566 C 70.82359242980257 126.9233818671452 184.7789859391209 C 0.0 **** -0.24
18567 H 70.11248500250485 127.00810499428286 183.95739993181644 H 0.0 **** 0.06
18568 H 71.41487851672119 126.01649069491461 184.654424657962 H 0.0 **** 0.06
18569 H 70.28238039388316 126.8775034462142 185.7243790085244 H 0.0 **** 0.06
18570 H 71.48311538195594 127.79154445989343 184.78057988849145 H 0.0 **** 0.06
18571 C 36.23101140675351 205.3202832385204 304.1329006959455 C 0.0 **** -0.24
18572 H 35.98199087739172 205.78949382988588 305.08386627873847 H 0.0 **** 0.06
18573 H 35.841084840090446 204.30145201829788 304.1183206745852 H 0.0 **** 0.06
18574 H 37.31440196545043 205.29688024197367 304.01134597030773 H 0.0 **** 0.06
18575 H 35.78574783269474 205.8910139555269 303.3183344644079 H 0.0 **** 0.06
18576 C 160.88762429931757 38.03138957723178 165.4094723393203 C 0.0 **** -0.24
18577 H 159.8955080251497 38.11623404121332 165.8523595296209 H 0.0 **** 0.06
18578 H 161.58410704123588 38.669959523441804 165.95385691749595 H 0.0 **** 0.06
18579 H 160.84739614074653 38.34251329551111 164.36614589380213 H 0.0 **** 0.06
18580 H 161.22359512930382 36.995815581557025 165.46723437859396 H 0.0 **** 0.06
18581 C 195.25895368930452 44.10298193447886 54.580360481014054 C 0.0 **** -0.24
18582 H 195.43622485184522 43.658380692996104 55.55960305593334 H 0.0 **** 0.06
18583 H 194.3564120822984 44.71314837739391 54.616164248862134 H 0.0 **** 0.06
18584 H 195.13395499662664 43.31194548295798 53.840147664028024 H 0.0 **** 0.06
18585 H 196.10988314967813 44.726344189812494 54.30518616663258 H 0.0 **** 0.06
18586 C 183.72746211170295 182.4323660769756 241.4144788924017 C 0.0 **** -0.24
18587 H 183.7293934225977 181.99739042765333 240.4152467859622 H 0.0 **** 0.06
18588 H 184.7445940802682 182.4493662661804 241.80614316532348 H 0.0 **** 0.06
18589 H 183.09545034102263 181.8329176427539 242.07045225372553 H 0.0 **** 0.06
18590 H 183.33956022091144 183.44927851389514 241.36708097104054 H 0.0 **** 0.06
18591 C 41.79180556308967 219.81566379465045 14.059639666033874 C 0.0 **** -0.24
18592 H 41.47316189137587 218.802509110933 14.30645974429828 H 0.0 **** 0.06
18593 H 42.58939873685131 219.77551743565556 13.31836188734816 H 0.0 **** 0.06
18594 H 42.15574371746027 220.31046422936964 14.960353217398449 H 0.0 **** 0.06
18595 H 40.946381836523074 220.3732670346127 13.65471164013448 H 0.0 **** 0.06
18596 C 199.8697866971949 286.38742197252964 101.41647834066526 C 0.0 **** -0.24
18597 H 199.78299815543954 287.2839199595499 100.80294557360835 H 0.0 **** 0.06
18598 H 199.818206349518 285.50504883327665 100.77936260820158 H 0.0 **** 0.06
18599 H 199.05519458460708 286.36278501604795 102.14012194022754 H 0.0 **** 0.06
18600 H 200.82311762319972 286.40078582670645 101.94433807662529 H 0.0 **** 0.06
18601 C 41.18183131257433 287.8058844477554 138.0100971405052 C 0.0 **** -0.24
18602 H 40.37622902910948 287.76434282598456 138.7429877212459 H 0.0 **** 0.06
18603 H 40.79451272199617 287.52870262349586 137.02960548010444 H 0.0 **** 0.06
18604 H 41.97116992302125 287.112988600854 138.29866298362708 H 0.0 **** 0.06
18605 H 41.58279474894857 288.8188612761084 137.9696790781386 H 0.0 **** 0.06
18606 C 126.3110145590955 243.1612240678661 303.3451319732857 C 0.0 **** -0.24
18607 H 125.57774537013691 242.51543307770962 302.8627403891177 H 0.0 **** 0.06
18608 H 126.99979587790588 242.5520870190755 303.93297779811905 H 0.0 **** 0.06
18609 H 125.79926619792124 243.86576022311897 304.00010813077995 H 0.0 **** 0.06
18610 H 126.86803925867036 243.70898483244784 302.58590804541484 H 0.0 **** 0.06
18611 C 109.23624755828538 185.5559937768299 6.896135485632982 C 0.0 **** -0.24
18612 H 109.56028124036993 184.7981338030159 6.18233384208726 H 0.0 **** 0.06
18613 H 108.77813311149316 186.3868577088458 6.358861222801636 H 0.0 **** 0.06
18614 H 110.09642148479568 185.91613642772631 7.45926729158117 H 0.0 **** 0.06
18615 H 108.5089533037652 185.12080131755238 7.582243308889147 H 0.0 **** 0.06
18616 C 25.540907881796272 125.93314886469315 114.2021274281517 C 0.0 **** -0.24
18617 H 25.979745157661284 125.84703764283373 115.19621849702241 H 0.0 **** 0.06
18618 H 25.746984055304438 125.02462778445232 113.63560433888588 H 0.0 **** 0.06
18619 H 25.973345873583753 126.79012913499963 113.68678623581803 H 0.0 **** 0.06
18620 H 24.462773931074423 126.06912667727391 114.2922638398438 H 0.0 **** 0.06
18621 C 191.427113585835 198.49706583120997 138.70124558397004 C 0.0 **** -0.24
18622 H 192.23505055304668 198.7929709762907 138.03130726088497 H 0.0 **** 0.06
18623 H 191.65521956780793 198.8290890607666 139.71411407804425 H 0.0 **** 0.06
18624 H 191.32283840210522 197.41256115806226 138.6881824361351 H 0.0 **** 0.06
18625 H 190.49476459997146 198.95629159860448 138.37009694543124 H 0.0 **** 0.06
18626 C 232.5944521518703 28.548701294143484 206.37284748058568 C 0.0 **** -0.24
18627 H 233.27851911622864 28.47225285587936 205.52760705618186 H 0.0 **** 0.06
18628 H 231.57016135402756 28.427701252352307 206.02235968513224 H 0.0 **** 0.06
18629 H 232.7056810689833 29.52668606058583 206.8423155621491 H 0.0 **** 0.06
18630 H 232.82605153378145 27.76928997035884 207.09813229384514 H 0.0 **** 0.06
18631 C 27.310103002616557 168.57165952921088 79.19313202894062 C 0.0 **** -0.24
18632 H 27.92777446371494 167.6755947490778 79.26166107819421 H 0.0 **** 0.06
18633 H 26.417807348527674 168.44495825680582 79.80722535152935 H 0.0 **** 0.06
18634 H 27.01887619281112 168.7336848871161 78.15632970003219 H 0.0 **** 0.06
18635 H 27.877834215599336 169.4307581864208 79.54991363573211 H 0.0 **** 0.06
18636 C 39.115021554425226 60.5970853159877 8.621477106543978 C 0.0 **** -0.24
18637 H 38.75516101902261 61.07027447270559 9.53491827351877 H 0.0 **** 0.06
18638 H 39.69538889057529 61.3166668862828 8.04373800441266 H 0.0 **** 0.06
18639 H 38.26442748660307 60.256360251763084 8.030262664060672 H 0.0 **** 0.06
18640 H 39.74331261988604 59.743879115632495 8.877642810161092 H 0.0 **** 0.06
18641 C 311.07209760346973 48.91387990307308 304.2014875840098 C 0.0 **** -0.24
18642 H 311.5545362694654 49.08871186955429 305.16284187060046 H 0.0 **** 0.06
18643 H 310.4984595527206 49.79697709228307 303.9175701708183 H 0.0 **** 0.06
18644 H 310.4038743006149 48.05646547987942 304.2799252863948 H 0.0 **** 0.06
18645 H 311.8312879143405 48.71569700858791 303.44489987461 H 0.0 **** 0.06
18646 C 172.13985714426065 308.1438479583928 210.92087711913044 C 0.0 **** -0.24
18647 H 171.53564187107747 308.86581150665216 211.4710742590081 H 0.0 **** 0.06
18648 H 172.58776893210205 307.43792206061846 211.62059564052072 H 0.0 **** 0.06
18649 H 172.92697025975923 308.6674345220397 210.37851801064846 H 0.0 **** 0.06
18650 H 171.5084846930473 307.60546339076654 210.21509441287495 H 0.0 **** 0.06
18651 C 208.0008181721328 115.22462698850427 220.8392567143292 C 0.0 **** -0.24
18652 H 207.5612664955038 115.79118918505722 221.66006786811036 H 0.0 **** 0.06
18653 H 209.0535672216538 115.03509407207514 221.0514054057055 H 0.0 **** 0.06
18654 H 207.91278328122587 115.7955346038423 219.91543600753812 H 0.0 **** 0.06
18655 H 207.47528333055718 114.27554954699588 220.73086624949457 H 0.0 **** 0.06
18656 C 311.55768227019 147.92853682582262 286.43883225445694 C 0.0 **** -0.24
18657 H 312.4005050602443 147.37802703177925 286.0214726266686 H 0.0 **** 0.06
18658 H 311.0079575539156 147.2855226253461 287.12612173053196 H 0.0 **** 0.06
18659 H 310.8975769832597 148.24809382410854 285.63258931094197 H 0.0 **** 0.06
18660 H 311.926501943366 148.80381034955042 286.975234776069 H 0.0 **** 0.06
18661 C 197.969435984889 41.16832821754633 32.40000074796774 C 0.0 **** -0.24
18662 H 198.90266222428204 41.49362683228435 31.938948741477247 H 0.0 **** 0.06
18663 H 197.3797598350422 42.04219842207726 32.68059879301043 H 0.0 **** 0.06
18664 H 198.18963769067983 40.57759063496337 33.28818184393302 H 0.0 **** 0.06
18665 H 197.40679148548116 40.561955249739015 31.690143479656825 H 0.0 **** 0.06
18666 C 227.7374388640047 88.26103739850618 37.14524811332447 C 0.0 **** -0.24
18667 H 226.83438290366055 88.42202287479171 36.55556263478999 H 0.0 **** 0.06
18668 H 227.49536784864102 88.33167965016995 38.205845420190315 H 0.0 **** 0.06
18669 H 228.47656875791472 89.02035317078469 36.8895727166329 H 0.0 **** 0.06
18670 H 228.14092364332646 87.27224100472753 36.92825716374364 H 0.0 **** 0.06
18671 C 77.81391489827539 222.44259912281282 276.2301534917733 C 0.0 **** -0.24
18672 H 77.5688168856959 221.3998550561451 276.432569219328 H 0.0 **** 0.06
18673 H 77.36598513581188 223.07557431990767 276.9966139804261 H 0.0 **** 0.06
18674 H 77.42314645894038 222.7233345855126 275.25186929034214 H 0.0 **** 0.06
18675 H 78.89589798803385 222.5699950720026 276.23938445025715 H 0.0 **** 0.06
18676 C 102.72775360412726 120.99737255253774 137.4246938203077 C 0.0 **** -0.24
18677 H 103.32240844334382 120.69725678789064 138.28745827234275 H 0.0 **** 0.06
18678 H 101.6723584559017 120.82119606906045 137.63152050085256 H 0.0 **** 0.06
18679 H 103.03063377576166 120.41335523439238 136.55531546420497 H 0.0 **** 0.06
18680 H 102.88847676686399 122.05678601244264 137.22447010376638 H 0.0 **** 0.06
18681 C 205.28137725235172 59.7093272677844 220.33822816898473 C 0.0 **** -0.24
18682 H 205.50525967152737 59.51458509709306 219.2890553984306 H 0.0 **** 0.06
18683 H 206.1248087477485 59.3962891335203 220.95370829813925 H 0.0 **** 0.06
18684 H 204.3915283455305 59.151318796768805 220.62827957095817 H 0.0 **** 0.06
18685 H 205.1040116671184 60.77563104035289 220.4790900326372 H 0.0 **** 0.06
18686 C 127.69710334087762 172.21679155168943 219.76727841560148 C 0.0 **** -0.24
18687 H 127.66455428725104 171.4522599993403 218.99128394857286 H 0.0 **** 0.06
18688 H 128.6997852700517 172.25725031364038 220.19447789331255 H 0.0 **** 0.06
18689 H 126.97863289279897 171.9722641465895 220.5493435734744 H 0.0 **** 0.06
18690 H 127.44786714825145 173.1854629627349 219.33367909685091 H 0.0 **** 0.06
18691 C 65.82578205618114 53.2971326885463 255.8792406465686 C 0.0 **** -0.24
18692 H 66.61901556502002 52.7711929132129 255.3481819850198 H 0.0 **** 0.06
18693 H 64.93124805066267 53.32814508630577 255.25702083409584 H 0.0 **** 0.06
18694 H 66.14975392143288 54.31372893350584 256.1008295736634 H 0.0 **** 0.06
18695 H 65.60441124838329 52.77519572726476 256.8104436995679 H 0.0 **** 0.06
18696 C 33.20910336463888 65.83497724086556 280.5039584729095 C 0.0 **** -0.24
18697 H 33.179976832762605 66.67745027577038 279.8129677490735 H 0.0 **** 0.06
18698 H 32.68068713465604 64.98799365006846 280.0649625273181 H 0.0 **** 0.06
18699 H 32.72965657089861 66.11638456154085 281.44107161330504 H 0.0 **** 0.06
18700 H 34.24617584755566 65.55796696796955 280.6946003519952 H 0.0 **** 0.06
18701 C 210.85705134772365 144.93022431631567 118.8884522585229 C 0.0 **** -0.24
18702 H 210.26697344937213 144.0397401140098 118.67193364741675 H 0.0 **** 0.06
18703 H 211.23803484788348 144.8734713042598 119.90880564065071 H 0.0 **** 0.06
18704 H 210.23060165696137 145.81562474541985 118.78320867398449 H 0.0 **** 0.06
18705 H 211.69298502632637 144.99048822575995 118.19169800116168 H 0.0 **** 0.06
18706 C 203.31981038859107 239.18985038490348 131.3736607299814 C 0.0 **** -0.24
18707 H 203.80005589659066 239.21222215227266 130.39560904203412 H 0.0 **** 0.06
18708 H 204.04534367501634 238.8850952107117 132.127796714769 H 0.0 **** 0.06
18709 H 202.4934294582908 238.47937486307924 131.3551826211652 H 0.0 **** 0.06
18710 H 202.940456485519 240.1832655078049 131.61413393439997 H 0.0 **** 0.06
18711 C 72.5867125891368 70.28814797360388 306.84484377270934 C 0.0 **** -0.24
18712 H 73.21293077830916 70.39555378661652 307.731507817728 H 0.0 **** 0.06
18713 H 73.21287683173017 70.31873931145432 305.9525070276403 H 0.0 **** 0.06
18714 H 71.86362265417637 71.10217909062783 306.8105417316278 H 0.0 **** 0.06
18715 H 72.05997801198527 69.33490102464896 306.88681148085936 H 0.0 **** 0.06
18716 C 113.60139215249669 113.14105297417007 181.55757184818833 C 0.0 **** -0.24
18717 H 113.75946571106147 112.29067846177045 180.89315383570107 H 0.0 **** 0.06
18718 H 114.56398378950331 113.58653097297596 181.812038055117 H 0.0 **** 0.06
18719 H 113.10387933407765 112.80403145091535 182.46652775180235 H 0.0 **** 0.06
18720 H 112.97879595169522 113.88185632933778 181.05503954723912 H 0.0 **** 0.06
18721 C 196.9127539577571 120.99851267738566 70.95807845760473 C 0.0 **** -0.24
18722 H 197.1074450278751 120.00575284670333 71.36285203901815 H 0.0 **** 0.06
18723 H 196.80680105216118 120.93411476492855 69.87449401372007 H 0.0 **** 0.06
18724 H 197.74344446488288 121.6598860201371 71.20363075601827 H 0.0 **** 0.06
18725 H 195.99332264378745 121.3925453382721 71.38994726475883 H 0.0 **** 0.06
18726 C 209.8346866184096 221.7118437967364 30.37183674897176 C 0.0 **** -0.24
18727 H 209.3726645220351 222.4979114211016 30.969154606202096 H 0.0 **** 0.06
18728 H 209.37601252762158 221.6901271805755 29.382960204709946 H 0.0 **** 0.06
18729 H 209.68813923645325 220.74983450522643 30.86130720845142 H 0.0 **** 0.06
18730 H 210.90204158240817 221.91120561126263 30.272480817572728 H 0.0 **** 0.06
18731 C 242.3643871386618 77.73814362481329 198.89654087723198 C 0.0 **** -0.24
18732 H 241.9757227089425 78.68833612650116 199.26335080407063 H 0.0 **** 0.06
18733 H 241.7586634113775 76.92225442743921 199.29018275912216 H 0.0 **** 0.06
18734 H 243.39645226617134 77.61669694991554 199.22538677948415 H 0.0 **** 0.06
18735 H 242.3263262871206 77.72620330047994 197.80712903979048 H 0.0 **** 0.06
18736 C 261.0611236083005 21.915860735168252 212.52998949535214 C 0.0 **** -0.24
18737 H 259.99726270415255 22.152310591440994 212.5323957970903 H 0.0 **** 0.06
18738 H 261.4276991250523 21.88077146368451 213.55539355171373 H 0.0 **** 0.06
18739 H 261.60253452855585 22.681965111646406 211.9759681558151 H 0.0 **** 0.06
18740 H 261.2154575712366 20.94685127982035 212.05508629015878 H 0.0 **** 0.06
18741 C 203.77202670882548 304.52601321485577 44.906333200380374 C 0.0 **** -0.24
18742 H 203.02543901780263 303.73470145360744 44.97650347767433 H 0.0 **** 0.06
18743 H 204.64078406702646 304.2601986603623 45.5088758351514 H 0.0 **** 0.06
18744 H 203.3463686698713 305.4597842482313 45.27297231244967 H 0.0 **** 0.06
18745 H 204.07482856327033 304.64825815448285 43.86643726268571 H 0.0 **** 0.06
18746 C 165.2923685944129 267.29373186429274 162.18404256174955 C 0.0 **** -0.24
18747 H 165.2481473062707 268.37183459199593 162.33658545263313 H 0.0 **** 0.06
18748 H 165.94944315434918 266.84813059546286 162.93067090323353 H 0.0 **** 0.06
18749 H 165.67928971557382 267.0839534982928 161.18636904929957 H 0.0 **** 0.06
18750 H 164.29218494313722 266.87073094476443 162.281675747775 H 0.0 **** 0.06
18751 C 253.62117731971696 100.14131128327892 182.2750564403571 C 0.0 **** -0.24
18752 H 253.53481175594686 99.37429780610267 181.5062010184575 H 0.0 **** 0.06
18753 H 253.472594161557 99.69028285961164 183.25619035385148 H 0.0 **** 0.06
18754 H 252.86565045635473 100.90855251721499 182.10847494769934 H 0.0 **** 0.06
18755 H 254.6131396745068 100.59130895928365 182.22897900012327 H 0.0 **** 0.06
18756 C 290.2986715005343 171.80309808334476 78.05105363427447 C 0.0 **** -0.24
18757 H 290.72287945994356 172.69646733634414 77.59199989230879 H 0.0 **** 0.06
18758 H 289.2395254697547 171.73415579778055 77.80021304182756 H 0.0 **** 0.06
18759 H 290.4125588280399 171.8631319813793 79.13406654459277 H 0.0 **** 0.06
18760 H 290.81826277526466 170.92116656312226 77.6786223741567 H 0.0 **** 0.06
18761 C 161.59357911817523 244.7335292833829 143.1539142896118 C 0.0 **** -0.24
18762 H 161.46395893726458 244.1601993898147 144.0711426068763 H 0.0 **** 0.06
18763 H 160.92809287618496 245.59744131135227 143.16842034194846 H 0.0 **** 0.06
18764 H 161.35531139995317 244.1055059846829 142.29532149796202 H 0.0 **** 0.06
18765 H 162.62728050932503 245.07230576022192 143.08044126506493 H 0.0 **** 0.06
18766 C 111.78955244997368 247.82050624791404 193.4760679945697 C 0.0 **** -0.24
18767 H 111.74502636063349 247.19632341247842 194.36918196847023 H 0.0 **** 0.06
18768 H 111.18453231649184 247.36992443262488 192.68850401540175 H 0.0 **** 0.06
18769 H 112.8231009408513 247.90118640055826 193.14074937636013 H 0.0 **** 0.06
18770 H 111.40345981122144 248.8131573563116 193.70840095088516 H 0.0 **** 0.06
18771 C 281.20489009977655 59.97762193093922 310.09652539337736 C 0.0 **** -0.24
18772 H 281.31854060193484 60.957446939955304 310.55874921183687 H 0.0 **** 0.06
18773 H 282.18064402300485 59.495338666014305 310.0229625451877 H 0.0 **** 0.06
18774 H 280.7806730822748 60.09343504199791 309.0990197058715 H 0.0 **** 0.06
18775 H 280.5411649565227 59.36378193777645 310.704578633029 H 0.0 **** 0.06
18776 C 208.7187409659998 207.09066734800348 35.577469731621676 C 0.0 **** -0.24
18777 H 208.042752942844 206.27116832772282 35.336631837550016 H 0.0 **** 0.06
18778 H 209.4959174019665 207.15624065392285 34.81532454619429 H 0.0 **** 0.06
18779 H 209.1774462973301 206.90971664847223 36.54934915392292 H 0.0 **** 0.06
18780 H 208.160293951707 208.0262979804848 35.6079918902596 H 0.0 **** 0.06
18781 C 50.78691529956467 117.78377531386923 270.92094929239033 C 0.0 **** -0.24
18782 H 50.303268927155045 118.62867720721826 271.41058826590637 H 0.0 **** 0.06
18783 H 50.691823982428616 117.88852543132768 269.83941177033876 H 0.0 **** 0.06
18784 H 50.3084130072271 116.8572472948675 271.23974662682406 H 0.0 **** 0.06
18785 H 51.84183537820752 117.76002760413903 271.192557502497 H 0.0 **** 0.06
18786 C 136.81550991837312 33.83384995249128 273.56124756239683 C 0.0 **** -0.24
18787 H 136.72679863016398 34.39140966499011 274.49439376240866 H 0.0 **** 0.06
18788 H 136.975398481504 34.528885002345106 272.7367075217646 H 0.0 **** 0.06
18789 H 135.89987563764376 33.26795223803677 273.38802806854176 H 0.0 **** 0.06
18790 H 137.65913863320452 33.14695770593897 273.6281578205892 H 0.0 **** 0.06
18791 C 149.7003216069984 138.6345712451845 228.06335152133892 C 0.0 **** -0.24
18792 H 149.8598656432892 139.69232136560888 228.27305782526335 H 0.0 **** 0.06
18793 H 148.63084100403648 138.42571771833866 228.04462206302338 H 0.0 **** 0.06
18794 H 150.17511916038524 138.03435826674735 228.83970132337902 H 0.0 **** 0.06
18795 H 150.13598850870352 138.38778911716923 227.09497334953963 H 0.0 **** 0.06
18796 C 204.6567464403654 232.08830198335437 190.06796114591276 C 0.0 **** -0.24
18797 H 205.33067090278507 232.865860398241 190.42679547784059 H 0.0 **** 0.06
18798 H 205.21513552821796 231.16305536523802 189.92253873932526 H 0.0 **** 0.06
18799 H 204.21388887430578 232.39910405052396 189.1216860266079 H 0.0 **** 0.06
18800 H 203.86755427971855 231.92520571927537 190.80221361896253 H 0.0 **** 0.06
18801 C 78.17347427904502 268.8236311680152 168.501735937991 C 0.0 **** -0.24
18802 H 78.85817033409867 269.15676692690994 167.7221384611865 H 0.0 **** 0.06
18803 H 78.72725755055362 268.2691745222407 169.26011662815569 H 0.0 **** 0.06
18804 H 77.41092322776402 268.17902413872736 168.06424534007397 H 0.0 **** 0.06
18805 H 77.69672220438503 269.6900134176629 168.96078235082894 H 0.0 **** 0.06
18806 C 311.89899993838804 22.20253730318464 206.64856000029113 C 0.0 **** -0.24
18807 H 310.9449452057933 22.110352988062118 207.1681145900023 H 0.0 **** 0.06
18808 H 312.70469563482254 22.27332163610032 207.3803218329843 H 0.0 **** 0.06
18809 H 311.8904773702592 23.1000001938867 206.02945897564325 H 0.0 **** 0.06
18810 H 312.0562936403769 21.328099266715526 206.01813065779766 H 0.0 **** 0.06
18811 C 68.39042171401516 195.14696108894498 64.73580455605935 C 0.0 **** -0.24
18812 H 68.34770016606379 196.1912209564507 65.04324811616186 H 0.0 **** 0.06
18813 H 67.64100172288809 194.96357055563197 63.96529307467179 H 0.0 **** 0.06
18814 H 68.19354100675119 194.50665781063333 65.59580691068783 H 0.0 **** 0.06
18815 H 69.38224542162217 194.92605515428096 64.33906073546225 H 0.0 **** 0.06
18816 C 139.27255500993766 35.04808201776302 131.85547520878458 C 0.0 **** -0.24
18817 H 138.48196736175876 34.42911605101915 132.278246597376 H 0.0 **** 0.06
18818 H 138.83458139115973 35.938735533456224 131.40399455819397 H 0.0 **** 0.06
18819 H 139.8094055528509 34.48191328363623 131.09505111392056 H 0.0 **** 0.06
18820 H 139.9642657339812 35.342563202940426 132.6446085656476 H 0.0 **** 0.06
18821 C 234.28663486875183 114.84936985504325 17.075210013118692 C 0.0 **** -0.24
18822 H 234.61785033222685 115.58018315717842 16.33610542446661 H 0.0 **** 0.06
18823 H 233.26167293848144 115.07342011421528 17.371753223154883 H 0.0 **** 0.06
18824 H 234.9374196588679 114.89612146923483 17.94826029383512 H 0.0 **** 0.06
18825 H 234.3300015424302 113.84995535492627 16.641258008096713 H 0.0 **** 0.06
18826 C 59.091439015017755 178.22864725947215 295.99037753577215 C 0.0 **** -0.24
18827 H 59.94435670593958 178.90564859007907 295.9487727495801 H 0.0 **** 0.06
18828 H 58.49478703920508 178.4502879823022 296.87575212528424 H 0.0 **** 0.06
18829 H 59.44698822577064 177.19904232019138 296.0398930031978 H 0.0 **** 0.06
18830 H 58.47990644656929 178.35931644998647 295.09800551299253 H 0.0 **** 0.06
18831 C 225.5931071541401 164.69769485675272 76.86814410795961 C 0.0 **** -0.24
18832 H 225.33926302790775 163.66371390901935 76.63352758791848 H 0.0 **** 0.06
18833 H 224.69094549282528 165.23664452113957 77.1578404090759 H 0.0 **** 0.06
18834 H 226.0348053324032 165.17164392500115 75.99184601495165 H 0.0 **** 0.06
18835 H 226.30853663322944 164.7174737231751 77.69160802145859 H 0.0 **** 0.06
18836 C 288.1433811829975 154.50596272635744 299.39111964768256 C 0.0 **** -0.24
18837 H 287.2859687577133 153.97324610290525 298.98017405428527 H 0.0 **** 0.06
18838 H 288.9999133804677 153.83307342499927 299.4358402717726 H 0.0 **** 0.06
18839 H 287.90423426923246 154.85788605112674 300.3953472530685 H 0.0 **** 0.06
18840 H 288.38211632532546 155.35724931138526 298.7543779202122 H 0.0 **** 0.06
18841 C 294.9001612466246 224.80404004869297 1.4659152995435534 C 0.0 **** -0.24
18842 H 294.084494837756 224.1343450531757 1.1912131379285285 H 0.0 **** 0.06
18843 H 295.8199780289033 224.47293840426937 0.983408159855955 H 0.0 **** 0.06
18844 H 295.03096301438813 224.7898985888498 2.548151534658018 H 0.0 **** 0.06
18845 H 294.6623562023074 225.81686125490756 1.1420630011269566 H 0.0 **** 0.06
18846 C 175.05686906829857 67.58971376864434 101.66002054721747 C 0.0 **** -0.24
18847 H 174.3321598228738 67.95031325316268 100.93036660926032 H 0.0 **** 0.06
18848 H 175.05380817923663 68.2468033722443 102.53015113359322 H 0.0 **** 0.06
18849 H 176.0504517928474 67.58533373655433 101.21173098105564 H 0.0 **** 0.06
18850 H 174.79187842867356 66.5788077255558 101.96623660340833 H 0.0 **** 0.06
18851 C 142.09441202738063 253.0949175534002 126.87254267608603 C 0.0 **** -0.24
18852 H 141.39541294190175 253.25405371411298 127.6928056246145 H 0.0 **** 0.06
18853 H 142.44739561670292 254.05844566204743 126.50373442846416 H 0.0 **** 0.06
18854 H 141.59236969605035 252.55922692341565 126.06719219699036 H 0.0 **** 0.06
18855 H 142.9416286202009 252.50743802918188 127.22624764215715 H 0.0 **** 0.06
18856 C 191.72191213747993 130.94926735547415 205.6145546345506 C 0.0 **** -0.24
18857 H 192.6255315427997 130.96745934656045 205.00380805888113 H 0.0 **** 0.06
18858 H 190.8636794199644 131.22515848876026 205.00026883480865 H 0.0 **** 0.06
18859 H 191.824587790743 131.65792866506195 206.43623170465395 H 0.0 **** 0.06
18860 H 191.57574071312388 129.94657425946707 206.01500789705398 H 0.0 **** 0.06
18861 C 152.89002274252118 53.40976665709505 45.804005792983105 C 0.0 **** -0.24
18862 H 153.14421860465575 54.45589205571224 45.9802541200273 H 0.0 **** 0.06
18863 H 153.39145990696545 53.063013647234186 44.90053112842884 H 0.0 **** 0.06
18864 H 151.8108145661164 53.31481249793961 45.68090919274712 H 0.0 **** 0.06
18865 H 153.21290435957854 52.80941064858101 46.65419663723853 H 0.0 **** 0.06
18866 C 182.29444996733673 158.98756374358453 144.15342772355035 C 0.0 **** -0.24
18867 H 182.80072984276256 158.06255324419124 143.8787304162648 H 0.0 **** 0.06
18868 H 182.66824997827587 159.80444934307047 143.53508330103082 H 0.0 **** 0.06
18869 H 182.48621953461458 159.20923035159 145.20321565322467 H 0.0 **** 0.06
18870 H 181.2213814345157 158.87437194341987 143.99605588848314 H 0.0 **** 0.06
18871 C 13.199238182739862 205.23614442650256 247.3206898430174 C 0.0 **** -0.24
18872 H 13.442340151868805 205.52163668709107 248.34423122093844 H 0.0 **** 0.06
18873 H 14.017300931756068 204.64750628087 246.90412552952543 H 0.0 **** 0.06
18874 H 13.0532806724827 206.1331122885324 246.718868931649 H 0.0 **** 0.06
18875 H 12.285175083829685 204.64284579033387 247.31672412792028 H 0.0 **** 0.06
18876 C 30.708355145435718 229.81759445481015 275.8714405238171 C 0.0 **** -0.24
18877 H 30.619899887777137 230.71824061958517 276.4797673335778 H 0.0 **** 0.06
18878 H 29.713015042476258 229.45623680614318 275.6132117908972 H 0.0 **** 0.06
18879 H 31.239639911426877 229.05004281542628 276.43474890384175 H 0.0 **** 0.06
18880 H 31.26056993351861 230.04810029783565 274.96084169320017 H 0.0 **** 0.06
18881 C 290.8835897476192 58.887875133938365 143.25089526221007 C 0.0 **** -0.24
18882 H 291.9516668261108 59.08167065964017 143.3522658738137 H 0.0 **** 0.06
18883 H 290.3250579473356 59.61700475607438 143.83756601368984 H 0.0 **** 0.06
18884 H 290.6603935119491 57.88371613436402 143.60991961954582 H 0.0 **** 0.06
18885 H 290.59829662252275 58.969941400948386 142.20204288410574 H 0.0 **** 0.06
18886 C 35.760504675089464 28.293953233079435 248.98560394097862 C 0.0 **** -0.24
18887 H 35.20728963376814 27.975270262273852 248.10223955898397 H 0.0 **** 0.06
18888 H 35.098240308641834 28.857019557306188 249.6443091708247 H 0.0 **** 0.06
18889 H 36.594901292558575 28.92668870116799 248.68287722820216 H 0.0 **** 0.06
18890 H 36.139663719450425 27.41910436840243 249.51260700299417 H 0.0 **** 0.06
18891 C 258.00128729113993 4.511319881991483 158.2179510997384 C 0.0 **** -0.24
18892 H 257.6600500599608 4.846183971795028 157.23843818864543 H 0.0 **** 0.06
18893 H 257.5469309607616 5.131659921980045 158.99099826078344 H 0.0 **** 0.06
18894 H 259.0857939624333 4.597253643928198 158.27376339139698 H 0.0 **** 0.06
18895 H 257.7099318683144 3.472189353349293 158.3686796929424 H 0.0 **** 0.06
18896 C 155.0799557407159 211.98747828699175 249.06556062674088 C 0.0 **** -0.24
18897 H 155.80405705641704 211.21915154484844 249.33829063247396 H 0.0 **** 0.06
18898 H 155.23869725039634 212.28354500239686 248.02850663387267 H 0.0 **** 0.06
18899 H 155.20773558157958 212.8534448120667 249.7140771136494 H 0.0 **** 0.06
18900 H 154.07028634923313 211.59289836274792 249.1802155611686 H 0.0 **** 0.06
18901 C 184.67769028544888 249.27371137774617 75.16725060717397 C 0.0 **** -0.24
18902 H 184.94310805523378 250.24915098827648 75.57476173971588 H 0.0 **** 0.06
18903 H 183.8995763781927 249.39507422581087 74.4134806438945 H 0.0 **** 0.06
18904 H 184.31196185018473 248.63253792971747 75.96962874351959 H 0.0 **** 0.06
18905 H 185.55770832608664 248.81876117069498 74.71112133456063 H 0.0 **** 0.06
18906 C 303.26524041410937 227.31634441887056 142.16433975868807 C 0.0 **** -0.24
18907 H 303.6467714516703 226.9551082121395 143.1201440415285 H 0.0 **** 0.06
18908 H 303.7977461932964 226.82257459150463 141.35139738477417 H 0.0 **** 0.06
18909 H 303.4159451496887 228.3933304516546 142.09680818377123 H 0.0 **** 0.06
18910 H 302.2008980219076 227.09156785352928 142.0912499479835 H 0.0 **** 0.06
18911 C 175.28635173777025 257.56196809894936 267.1421247276766 C 0.0 **** -0.24
18912 H 176.14539873268137 257.49690599207133 266.47274550596853 H 0.0 **** 0.06
18913 H 175.20190042089473 256.63876153897195 267.7152765155361 H 0.0 **** 0.06
18914 H 174.37999461509463 257.71058041846294 266.55561173362514 H 0.0 **** 0.06
18915 H 175.4207083348383 258.4018612226653 267.8237655388945 H 0.0 **** 0.06
18916 C 257.40248199076166 40.06040935336438 150.90357667456817 C 0.0 **** -0.24
18917 H 256.9530736153269 41.01419478764558 150.62567235470442 H 0.0 **** 0.06
18918 H 257.8751840185335 40.153260425118276 151.88139353971718 H 0.0 **** 0.06
18919 H 258.1517724399128 39.78200340427526 150.16255487996955 H 0.0 **** 0.06
18920 H 256.629165696037 39.29338566462101 150.9446000681212 H 0.0 **** 0.06
18921 C 313.8960067812799 291.9169114333972 66.05384263381345 C 0.0 **** -0.24
18922 H 313.18667735196914 292.6223077595707 65.62081361131689 H 0.0 **** 0.06
18923 H 313.6345954172755 290.90477520602485 65.74595190080208 H 0.0 **** 0.06
18924 H 313.85995597409806 291.988443398604 67.14040273908361 H 0.0 **** 0.06
18925 H 314.90174257379806 292.15463929360607 65.70696321505358 H 0.0 **** 0.06
18926 C 109.32503363212962 272.8246464104641 191.0858631545591 C 0.0 **** -0.24
18927 H 108.57508840509823 272.5098024199173 191.81116775663975 H 0.0 **** 0.06
18928 H 109.79943240846544 271.9458306121176 190.6492982190806 H 0.0 **** 0.06
18929 H 110.07835082804652 273.43532078654806 191.58366367603344 H 0.0 **** 0.06
18930 H 108.84663203883247 273.4081003388924 190.29870447774158 H 0.0 **** 0.06
18931 C 36.694284423209126 140.68886117910392 197.35076136508343 C 0.0 **** -0.24
18932 H 35.67736913960414 140.76769909417 196.964898378905 H 0.0 **** 0.06
18933 H 37.138057936432546 139.7520143994727 197.01426540783586 H 0.0 **** 0.06
18934 H 36.67112366642169 140.70992793363132 198.44039209240282 H 0.0 **** 0.06
18935 H 37.28822692138971 141.5253978507959 196.98400524575112 H 0.0 **** 0.06
18936 C 1.6595222730314845 258.5821798562758 192.34675846681142 C 0.0 **** -0.24
18937 H 1.1059547277938009 258.0625631762512 191.5639923245892 H 0.0 **** 0.06
18938 H 1.2172584725105935 259.5650541899855 192.5111942519015 H 0.0 **** 0.06
18939 H 2.699193103424932 258.6970623548046 192.03959250591726 H 0.0 **** 0.06
18940 H 1.6148089022600516 258.003884187516 193.26876018955892 H 0.0 **** 0.06
18941 C 255.95165116623252 31.418419088783253 301.6800963036854 C 0.0 **** -0.24
18942 H 256.5482824027373 32.03358522938251 301.0060702361173 H 0.0 **** 0.06
18943 H 255.58129400720404 32.03330885513594 302.5003709527763 H 0.0 **** 0.06
18944 H 256.5695878938156 30.614321531011058 302.079630617578 H 0.0 **** 0.06
18945 H 255.1104196181465 30.99389814370295 301.1340726867017 H 0.0 **** 0.06
18946 C 36.01748289616029 97.88490282356094 312.44647390265254 C 0.0 **** -0.24
18947 H 36.231669171254 98.88658726424333 312.8180554781858 H 0.0 **** 0.06
18948 H 34.93827753411051 97.74983940464969 312.3667931984779 H 0.0 **** 0.06
18949 H 36.42671945902828 97.14644815064906 313.1357086089759 H 0.0 **** 0.06
18950 H 36.474023793032984 97.75660660976524 311.4646995681147 H 0.0 **** 0.06
18951 C 60.39383923182692 86.18217949856862 161.32712975208022 C 0.0 **** -0.24
18952 H 60.79317476534334 87.17606650693045 161.1272970915407 H 0.0 **** 0.06
18953 H 59.79620453416135 86.20724729637152 162.23780956366988 H 0.0 **** 0.06
18954 H 61.21744343019225 85.47912577549073 161.4520854937751 H 0.0 **** 0.06
18955 H 59.77001844195971 85.86622728356477 160.49043555818037 H 0.0 **** 0.06
18956 C 275.3723064004669 254.5683206383922 87.15906167210042 C 0.0 **** -0.24
18957 H 275.18353556340827 255.1049419069395 88.08926462771598 H 0.0 **** 0.06
18958 H 276.4367343620997 254.60757593748014 86.92706493260718 H 0.0 **** 0.06
18959 H 274.8070190315294 255.03273349521672 86.35155363173408 H 0.0 **** 0.06
18960 H 275.06168732806043 253.53005451523936 87.26972148013928 H 0.0 **** 0.06
18961 C 200.31816771004708 48.785689021616236 161.8185692778336 C 0.0 **** -0.24
18962 H 199.90129649851366 49.321288206222704 162.6723158812348 H 0.0 **** 0.06
18963 H 201.18494726876185 49.3273275682686 161.43833877339898 H 0.0 **** 0.06
18964 H 199.56422181375223 48.70763160302633 161.03620173750636 H 0.0 **** 0.06
18965 H 200.62280417750725 47.78623618089807 162.131104072058 H 0.0 **** 0.06
18966 C 310.3048579347594 47.876970892199296 55.42581111127589 C 0.0 **** -0.24
18967 H 310.0429628088024 48.11020192800538 54.39407200954702 H 0.0 **** 0.06
18968 H 310.48069293075594 48.803719384044626 55.97338361223237 H 0.0 **** 0.06
18969 H 311.2081684584418 47.26752204271301 55.44279774520331 H 0.0 **** 0.06
18970 H 309.4865736590704 47.32834884462957 55.89352795784984 H 0.0 **** 0.06
18971 C 128.46839002562672 272.14147162954043 69.78751026709313 C 0.0 **** -0.24
18972 H 127.71967820887562 272.91739432960077 69.62471305105677 H 0.0 **** 0.06
18973 H 127.98464852593713 271.24801679576495 70.18378160949345 H 0.0 **** 0.06
18974 H 129.2128645049914 272.49840845077426 70.49840280486785 H 0.0 **** 0.06
18975 H 128.95318981695615 271.90258095742604 68.84152202506752 H 0.0 **** 0.06
18976 C 4.079273967777709 141.86898653892226 162.53982248846972 C 0.0 **** -0.24
18977 H 3.63028784397369 141.94972993592745 163.52915676410902 H 0.0 **** 0.06
18978 H 4.498860561362164 142.83391654399898 162.25219680517057 H 0.0 **** 0.06
18979 H 3.3175866728247456 141.57346062811393 161.81735985498523 H 0.0 **** 0.06
18980 H 4.870753870642048 141.12011952184042 162.5601227843348 H 0.0 **** 0.06
18981 C 238.67223936328352 73.22356537955287 26.445869236142926 C 0.0 **** -0.24
18982 H 239.27646295051323 72.36202414551687 26.160892200833928 H 0.0 **** 0.06
18983 H 239.32274417713705 74.07726429855816 26.633917073838916 H 0.0 **** 0.06
18984 H 238.10880827972363 72.98945669579473 27.348347979397204 H 0.0 **** 0.06
18985 H 237.97993106113094 73.46452479754976 25.63832101478272 H 0.0 **** 0.06
18986 C 52.030000569493524 129.1235749542122 57.22267536405462 C 0.0 **** -0.24
18987 H 52.67465186724047 128.59294180917473 56.52302365559973 H 0.0 **** 0.06
18988 H 51.035021661499 128.67954875316443 57.20770699554589 H 0.0 **** 0.06
18989 H 51.96458098356044 130.17215699640113 56.932128760130354 H 0.0 **** 0.06
18990 H 52.44644618351285 129.05058050767036 58.22703546309339 H 0.0 **** 0.06
18991 C 52.360541765162395 170.71079148607686 201.79071783316795 C 0.0 **** -0.24
18992 H 53.02871084270379 169.85850573924972 201.9113720346857 H 0.0 **** 0.06
18993 H 51.35642211729288 170.35555434384014 201.56021912791363 H 0.0 **** 0.06
18994 H 52.71878914767535 171.34175573246694 200.97643392137553 H 0.0 **** 0.06
18995 H 52.33916099258886 171.28824382232312 202.71544807278696 H 0.0 **** 0.06
18996 C 276.4572123550246 102.1726870642558 17.77521950849348 C 0.0 **** -0.24
18997 H 277.4904026972241 102.37596182666968 18.05675181128794 H 0.0 **** 0.06
18998 H 276.3941499003871 101.18908345697005 17.308390389591978 H 0.0 **** 0.06
18999 H 276.1160702535403 102.93169382119709 17.071350089816804 H 0.0 **** 0.06
19000 H 275.8270927853512 102.19368660579511 18.665167093128048 H 0.0 **** 0.06
19001 C 77.23955326538626 140.81498389085405 265.6496151877535 C 0.0 **** -0.24
19002 H 77.84705750423774 141.38672747845146 264.9472718067247 H 0.0 **** 0.06
19003 H 77.41585287584834 141.17851852883257 266.661984865496 H 0.0 **** 0.06
19004 H 77.51042626809709 139.7608049073929 265.58909380153386 H 0.0 **** 0.06
19005 H 76.18567732662834 140.93460938600373 265.3979117957713 H 0.0 **** 0.06
19006 C 277.65369817677083 140.21964210535506 295.716635671003 C 0.0 **** -0.24
19007 H 276.5669520787617 140.26310651107593 295.7834870776055 H 0.0 **** 0.06
19008 H 277.96195376044585 139.20334687358266 295.4684948782554 H 0.0 **** 0.06
19009 H 278.088377999902 140.50844378131518 296.6734775557219 H 0.0 **** 0.06
19010 H 277.99729693276487 140.90344763823066 294.9401318137636 H 0.0 **** 0.06
19011 C 297.6526489821758 29.70760119856635 67.27440871778691 C 0.0 **** -0.24
19012 H 297.4473517918025 30.442174543979945 66.49563762539478 H 0.0 **** 0.06
19013 H 296.74797469866746 29.534964446577987 67.85824460831611 H 0.0 **** 0.06
19014 H 298.44134959906717 30.082249970469434 67.9283964803708 H 0.0 **** 0.06
19015 H 297.97384649885254 28.77310329465658 66.8166356698803 H 0.0 **** 0.06
19016 C 69.70818710268003 22.096575532347913 24.038286338464047 C 0.0 **** -0.24
19017 H 70.7104607448195 21.86020138162766 24.395517575621227 H 0.0 **** 0.06
19018 H 69.5475329203687 21.624104196646073 23.06890487409865 H 0.0 **** 0.06
19019 H 69.60303882046571 23.177003813175446 23.939322107526834 H 0.0 **** 0.06
19020 H 68.97152617437246 21.724322235949387 24.751275480519638 H 0.0 **** 0.06
19021 C 223.99478096680912 134.4926881266625 77.1655980639681 C 0.0 **** -0.24
19022 H 224.96735619488632 134.20806931150605 77.56744493409639 H 0.0 **** 0.06
19023 H 223.99277296801736 134.3497014510669 76.0851254232042 H 0.0 **** 0.06
19024 H 223.80037893260265 135.540058 77.39446383947444 H 0.0 **** 0.06
19025 H 223.22024307239846 133.8723856814498 77.6163887865861 H 0.0 **** 0.06
19026 C 10.427428226003613 47.187832091789005 112.9985998561223 C 0.0 **** -0.24
19027 H 9.64276968050126 47.7055680612082 113.55076086997403 H 0.0 **** 0.06
19028 H 11.287222766878855 47.84775939918501 112.886489897379 H 0.0 **** 0.06
19029 H 10.053551845567753 46.90710633659944 112.01393552108186 H 0.0 **** 0.06
19030 H 10.723926267533429 46.29173274680872 113.54373215667852 H 0.0 **** 0.06
19031 C 41.83136066862957 17.998225698421066 312.3638432075583 C 0.0 **** -0.24
19032 H 41.267387708437866 18.826556270391848 311.93628817169736 H 0.0 **** 0.06
19033 H 42.44846313699071 18.365465994638384 313.18471071491325 H 0.0 **** 0.06
19034 H 42.46980487329941 17.560275632861277 311.5967140876429 H 0.0 **** 0.06
19035 H 41.140318723188756 17.242774632237328 312.7375624408396 H 0.0 **** 0.06
19036 C 31.97949044073232 293.11370701229606 221.34921038044524 C 0.0 **** -0.24
19037 H 31.4657444206415 292.9204626842295 220.40786612709144 H 0.0 **** 0.06
19038 H 31.269722179513337 293.03488165541137 222.17361436835495 H 0.0 **** 0.06
19039 H 32.40651397748621 294.11690278277484 221.33136382764624 H 0.0 **** 0.06
19040 H 32.776663413964684 292.38241803607616 221.48522522135136 H 0.0 **** 0.06
19041 C 148.0324098191818 59.77046463121471 267.3875241171177 C 0.0 **** -0.24
19042 H 148.323843983255 60.44258394777168 268.19378592082154 H 0.0 **** 0.06
19043 H 148.92330598354448 59.31119647956274 266.95850297340274 H 0.0 **** 0.06
19044 H 147.50763937225852 60.33488689876111 266.6162512502939 H 0.0 **** 0.06
19045 H 147.37632305026636 58.99430467232531 267.78029531704635 H 0.0 **** 0.06
19046 C 156.9283373754448 235.54503404859682 303.2237749831743 C 0.0 **** -0.24
19047 H 156.43743652370642 234.74098997165794 303.7712873777018 H 0.0 **** 0.06
19048 H 156.18050735512134 236.2580864003127 302.8777432630461 H 0.0 **** 0.06
19049 H 157.45865778002872 235.1290350841958 302.3662993353563 H 0.0 **** 0.06
19050 H 157.63775966301642 236.0502780520734 303.87838239231763 H 0.0 **** 0.06
19051 C 272.52677385237973 76.43471904057355 123.05696808342137 C 0.0 **** -0.24
19052 H 271.87355142438173 75.56822821723767 122.95346222318753 H 0.0 **** 0.06
19053 H 271.92158438011745 77.32712502209199 123.21745676866473 H 0.0 **** 0.06
19054 H 273.11806999910436 76.55432407690321 122.14927273202548 H 0.0 **** 0.06
19055 H 273.19177890653594 76.28906452839541 123.90840650884292 H 0.0 **** 0.06
19056 C 270.33374504673134 6.664378588605288 232.17792304417605 C 0.0 **** -0.24
19057 H 270.3869306175244 5.995991460066975 233.0367753523929 H 0.0 **** 0.06
19058 H 270.42755525280273 6.084185319986062 231.25964543433776 H 0.0 **** 0.06
19059 H 271.14417190773514 7.392195132323863 232.2327385342096 H 0.0 **** 0.06
19060 H 269.3764613973684 7.186431842350316 232.18309689304294 H 0.0 **** 0.06
19061 C 188.1626430777664 301.8385365192952 228.5215729117793 C 0.0 **** -0.24
19062 H 188.4107011933815 301.41663922468103 229.49582349385827 H 0.0 **** 0.06
19063 H 187.68517473150013 301.07566555250844 227.90680286100104 H 0.0 **** 0.06
19064 H 189.0741053341842 302.18072567874594 228.03276775806302 H 0.0 **** 0.06
19065 H 187.481815822027 302.6791334383476 228.65303550855606 H 0.0 **** 0.06
19066 C 139.50644221647647 68.81248565875612 197.47287591647728 C 0.0 **** -0.24
19067 H 138.872890837735 68.95626096888705 198.34738358074816 H 0.0 **** 0.06
19068 H 138.92362530846125 68.3560935392417 196.67260468978418 H 0.0 **** 0.06
19069 H 140.34130598587248 68.16095380353588 197.73208062460907 H 0.0 **** 0.06
19070 H 139.8889153716104 69.77666463588542 197.13918814044098 H 0.0 **** 0.06
19071 C 46.90693416311717 194.0144123919025 199.26202021951423 C 0.0 **** -0.24
19072 H 45.95610158528996 194.53839825005144 199.35004619092757 H 0.0 **** 0.06
19073 H 46.914039188120455 193.15771041361546 199.93619200083845 H 0.0 **** 0.06
19074 H 47.72099448629689 194.69073267375632 199.5261698447572 H 0.0 **** 0.06
19075 H 47.039026779189214 193.67105136851387 198.2354311569303 H 0.0 **** 0.06
19076 C 67.3374408742572 198.0762856720408 221.37255280819608 C 0.0 **** -0.24
19077 H 68.08383697266132 198.52117756367426 222.0305044920143 H 0.0 **** 0.06
19078 H 67.13272385310671 198.7543010725924 220.54446259305814 H 0.0 **** 0.06
19079 H 66.41900345822233 197.89793355856864 221.93252208413043 H 0.0 **** 0.06
19080 H 67.71453890007683 197.12972977641437 220.9840938403731 H 0.0 **** 0.06
19081 C 45.321546691304036 7.061325113694863 6.815482938018704 C 0.0 **** -0.24
19082 H 45.555195837769844 6.828411747338407 7.85412521902299 H 0.0 **** 0.06
19083 H 45.849287984969294 6.368169617694804 6.159779545501465 H 0.0 **** 0.06
19084 H 45.632199947421554 8.082018663437651 6.592618446883421 H 0.0 **** 0.06
19085 H 44.246551566483475 6.966438115781571 6.654939176098139 H 0.0 **** 0.06
19086 C 119.22872457765578 276.78610224185843 21.992715913674374 C 0.0 **** -0.24
19087 H 120.05116525110603 276.45631745583034 21.357255696638276 H 0.0 **** 0.06
19088 H 118.29167668255667 276.7099355946269 21.44131566595945 H 0.0 **** 0.06
19089 H 119.39254724328217 277.82190641373876 22.28937767399293 H 0.0 **** 0.06
19090 H 119.18102325174368 276.1567006227316 22.88104273010174 H 0.0 **** 0.06
19091 C 308.69724836766915 216.55251273910653 284.120715498842 C 0.0 **** -0.24
19092 H 309.4239398644977 216.2276396220742 284.865333035635 H 0.0 **** 0.06
19093 H 308.7798022195022 217.63123729144405 283.98060282761605 H 0.0 **** 0.06
19094 H 307.6924629535911 216.3052757943136 284.46050146977757 H 0.0 **** 0.06
19095 H 308.89586317333715 216.0478454311551 283.17555603382135 H 0.0 **** 0.06
19096 C 246.74645154601842 155.34220987669812 192.89207594619046 C 0.0 **** -0.24
19097 H 246.2619997641279 154.49537861647315 192.4065909979035 H 0.0 **** 0.06
19098 H 246.56926808931996 156.246125755567 192.3081740174539 H 0.0 **** 0.06
19099 H 247.81794532031046 155.15778793405076 192.96019336376236 H 0.0 **** 0.06
19100 H 246.33440142016985 155.46998480635455 193.893271537916 H 0.0 **** 0.06
19101 C 245.27760520564942 173.3825718862483 272.7025511232228 C 0.0 **** -0.24
19102 H 246.29964690901113 173.33985526156994 272.32794013791295 H 0.0 **** 0.06
19103 H 244.89432241030278 172.36968943719046 272.8281926588082 H 0.0 **** 0.06
19104 H 244.65211281663977 173.9228410237708 271.99180582347117 H 0.0 **** 0.06
19105 H 245.26460848282954 173.89718501620752 273.6634547409917 H 0.0 **** 0.06
19106 C 157.7878616380459 79.90458008409007 86.52540453770735 C 0.0 **** -0.24
19107 H 157.745825564798 79.84931598805906 87.61418055134243 H 0.0 **** 0.06
19108 H 157.90984039577273 78.90120344561512 86.11592088790957 H 0.0 **** 0.06
19109 H 158.6323260101762 80.52568327202471 86.22700697855768 H 0.0 **** 0.06
19110 H 156.8637855511368 80.34159778926846 86.14882485868881 H 0.0 **** 0.06
19111 C 305.46146283858315 276.19465951936604 39.84137617962406 C 0.0 **** -0.24
19112 H 304.3947539773975 276.4031614194671 39.76305944938491 H 0.0 **** 0.06
19113 H 306.0185134471537 276.93029703617105 39.25983734145919 H 0.0 **** 0.06
19114 H 305.6649278244955 275.19654340298945 39.45448270054149 H 0.0 **** 0.06
19115 H 305.7668366247371 276.2493499165463 40.88617097284782 H 0.0 **** 0.06
19116 C 53.731403807020314 261.7900699538157 157.570288668251 C 0.0 **** -0.24
19117 H 54.05049905318825 262.7505344047174 157.1645786535555 H 0.0 **** 0.06
19118 H 52.75053249652595 261.53455982198614 157.1679002984365 H 0.0 **** 0.06
19119 H 53.67243435461194 261.85770184580144 158.65659888218426 H 0.0 **** 0.06
19120 H 54.45082420269165 261.02017515329857 157.29209693844507 H 0.0 **** 0.06
19121 C 282.2993864607684 77.81438374075361 162.07458538959105 C 0.0 **** -0.24
19122 H 282.9062677198572 76.91752439412056 162.19990817625734 H 0.0 **** 0.06
19123 H 281.80900573133107 77.78883155384929 161.1010782354242 H 0.0 **** 0.06
19124 H 282.93703855783957 78.6966229484301 162.13722832166013 H 0.0 **** 0.06
19125 H 281.5452338340457 77.85455606661452 162.8601268250224 H 0.0 **** 0.06
19126 C 52.19286286158135 181.43260599073722 313.77153822979443 C 0.0 **** -0.24
19127 H 51.24613857145363 181.10363258555083 314.19912209719706 H 0.0 **** 0.06
19128 H 52.78907523148783 180.5621232330542 313.49681849790255 H 0.0 **** 0.06
19129 H 52.73597321406706 182.02898803191118 314.5053610698485 H 0.0 **** 0.06
19130 H 52.00026442931687 182.0356801124326 312.8848512542296 H 0.0 **** 0.06
19131 C 67.33376970544845 251.33883001850992 7.653907435542067 C 0.0 **** -0.24
19132 H 68.04406404547035 251.9978086199269 7.152805139271663 H 0.0 **** 0.06
19133 H 66.86850571185244 250.68134383783496 6.918981798554455 H 0.0 **** 0.06
19134 H 66.5666550596917 251.93740332401438 8.143060232519758 H 0.0 **** 0.06
19135 H 67.85809696876737 250.73966311262342 8.397925773343218 H 0.0 **** 0.06
19136 C 63.15655912254681 3.7569330971098935 164.61239229328157 C 0.0 **** -0.24
19137 H 63.549227644517146 4.294697758707429 165.4743940003474 H 0.0 **** 0.06
19138 H 62.13249989472541 3.4416260103232332 164.81691979066193 H 0.0 **** 0.06
19139 H 63.775018713834584 2.87980476923056 164.41881288891085 H 0.0 **** 0.06
19140 H 63.16872906371532 4.4095584992072645 163.73992950140223 H 0.0 **** 0.06
19141 C 93.68063834690832 269.9234981243313 216.516542735556 C 0.0 **** -0.24
19142 H 94.26649600424363 270.8025552621683 216.78563510809056 H 0.0 **** 0.06
19143 H 93.95122532252859 269.6015016252725 215.5106877283132 H 0.0 **** 0.06
19144 H 92.61972013158658 270.1716727698534 216.54590657726396 H 0.0 **** 0.06
19145 H 93.88606585079674 269.11930623771013 217.22397846117315 H 0.0 **** 0.06
19146 C 2.3433100990875886 78.36384697198164 192.79976572053158 C 0.0 **** -0.24
19147 H 2.8705585445296435 78.70778392101508 193.6897515647799 H 0.0 **** 0.06
19148 H 2.680116315114688 78.93595183661967 191.9345403439416 H 0.0 **** 0.06
19149 H 1.2708990415644763 78.50762508240805 192.93524167064407 H 0.0 **** 0.06
19150 H 2.5510170138277886 77.30610833944152 192.64064573748448 H 0.0 **** 0.06
19151 C 38.4698144733415 52.0242674493889 305.4912387345228 C 0.0 **** -0.24
19152 H 38.92349783566573 52.990552431195795 305.7129730199249 H 0.0 **** 0.06
19153 H 39.14485116310607 51.44080486722805 304.8651850368429 H 0.0 **** 0.06
19154 H 37.52732331136062 52.17786595661124 304.9651443887948 H 0.0 **** 0.06
19155 H 38.282653068040446 51.48847455408304 306.4225104120456 H 0.0 **** 0.06
19156 C 57.466827687755284 263.883415808795 142.94106121842327 C 0.0 **** -0.24
19157 H 56.596140310846124 263.68998094127625 143.568633365132 H 0.0 **** 0.06
19158 H 57.184788060747536 263.79647904447404 141.89250173470353 H 0.0 **** 0.06
19159 H 58.24671863499739 263.1566620037834 143.17006421095513 H 0.0 **** 0.06
19160 H 57.83887853908564 264.88944289191676 143.13694134885677 H 0.0 **** 0.06
19161 C 205.06130872105632 168.38464560815538 174.18329656884487 C 0.0 **** -0.24
19162 H 205.1398308932287 169.1799315321246 174.92492917336364 H 0.0 **** 0.06
19163 H 205.89035204695705 168.4614326083377 173.48021032393018 H 0.0 **** 0.06
19164 H 204.1183978866925 168.4806819601606 173.64620484345687 H 0.0 **** 0.06
19165 H 205.09753730266908 167.4169018869697 174.6846855745129 H 0.0 **** 0.06
19166 C 240.8018014534714 272.7988777453669 35.20034812401974 C 0.0 **** -0.24
19167 H 241.1122739937852 273.2772744169607 36.129402362260436 H 0.0 **** 0.06
19168 H 239.86552667464954 273.24075120526277 34.85949077310775 H 0.0 **** 0.06
19169 H 240.65911395666993 271.7318970996707 35.37318600328811 H 0.0 **** 0.06
19170 H 241.57120451388005 272.9451254560903 34.44277048176764 H 0.0 **** 0.06
19171 C 242.03981228122717 77.97089587843357 253.6801285468441 C 0.0 **** -0.24
19172 H 241.35311172988247 78.30519884623996 254.45822637576183 H 0.0 **** 0.06
19173 H 242.02302602209733 78.68038076690996 252.8528741941752 H 0.0 **** 0.06
19174 H 241.73240905196144 76.98802382935622 253.32375214866283 H 0.0 **** 0.06
19175 H 243.04818196768707 77.91031980623973 254.08821733614434 H 0.0 **** 0.06
19176 C 256.3832695896971 82.19837123826017 228.3858044161836 C 0.0 **** -0.24
19177 H 256.4653387056321 82.01649107422398 229.45737271356575 H 0.0 **** 0.06
19178 H 257.36898313581986 82.11495914748525 227.9266284324608 H 0.0 **** 0.06
19179 H 255.9878313533041 83.20035208851212 228.21732792033063 H 0.0 **** 0.06
19180 H 255.7113299472692 81.46357580060683 227.9433893085893 H 0.0 **** 0.06
19181 C 43.44220383269581 104.69155910544035 231.57691125662336 C 0.0 **** -0.24
19182 H 43.95031556768123 105.6413834614327 231.41001755421843 H 0.0 **** 0.06
19183 H 43.54913821160736 104.06252096608358 230.69333477065186 H 0.0 **** 0.06
19184 H 42.3846863703198 104.87517822003656 231.76737172105146 H 0.0 **** 0.06
19185 H 43.88382453941966 104.18921807724044 232.4370437979636 H 0.0 **** 0.06
19186 C 229.4689360733327 164.7199983770284 2.6915550842704192 C 0.0 **** -0.24
19187 H 229.7072857051959 164.129202900304 3.5753681315483306 H 0.0 **** 0.06
19188 H 229.36975257765224 165.76898602169126 2.9722736436520876 H 0.0 **** 0.06
19189 H 228.53055660500848 164.36812762151425 2.262084132996307 H 0.0 **** 0.06
19190 H 230.2672731988081 164.61319918497622 1.9574964256470366 H 0.0 **** 0.06
19191 C 93.348790197194 128.22982572723075 244.51304881103698 C 0.0 **** -0.24
19192 H 92.97482338463817 129.14854670499773 244.96311761763138 H 0.0 **** 0.06
19193 H 92.65413341546997 127.41478243057963 244.72107702838295 H 0.0 **** 0.06
19194 H 94.32544369455493 127.99070702937698 244.93258371969614 H 0.0 **** 0.06
19195 H 93.43938227362474 128.36350825555417 243.43551068965328 H 0.0 **** 0.06
19196 C 253.8779197086305 32.4070751540379 120.53058503153827 C 0.0 **** -0.24
19197 H 252.84139294669382 32.07199532214267 120.5309336301028 H 0.0 **** 0.06
19198 H 253.91023578943606 33.49104411168719 120.41822702241438 H 0.0 **** 0.06
19199 H 254.411185407655 31.940278777333532 119.70250038224273 H 0.0 **** 0.06
19200 H 254.35098702540932 32.12474834530235 121.47187948242131 H 0.0 **** 0.06
19201 C 40.977433939600786 114.36072834093525 0.006617068792479586 C 0.0 **** -0.24
19202 H 40.00625784243641 114.41526566005871 0.4978716018968896 H 0.0 **** 0.06
19203 H 41.76319469174186 114.58941203481459 0.727798159931524 H 0.0 **** 0.06
19204 H 41.01228699461785 115.08136694143508 -0.8104665390640093 H 0.0 **** 0.06
19205 H 41.12843321394129 113.35619397634034 -0.3881401701923437 H 0.0 **** 0.06
19206 C 190.76353669898657 302.8320060241386 285.980281436532 C 0.0 **** -0.24
19207 H 189.840519495455 303.39431882654367 286.12133782226636 H 0.0 **** 0.06
19208 H 190.67372168184795 302.2022316245195 285.09538437103555 H 0.0 **** 0.06
19209 H 190.9454590298787 302.2074183075842 286.85426758921835 H 0.0 **** 0.06
19210 H 191.59495817257698 303.5254451506048 285.85103413740876 H 0.0 **** 0.06
19211 C 76.11523670512844 243.80860892487982 107.27734660304338 C 0.0 **** -0.24
19212 H 76.73510789505201 243.77501084783995 108.17342373591643 H 0.0 **** 0.06
19213 H 75.34979661975208 244.57678489034367 107.39385633791727 H 0.0 **** 0.06
19214 H 75.63903125157776 242.83938817422776 107.12938088999186 H 0.0 **** 0.06
19215 H 76.73772016546303 244.04374224965485 106.41323201730972 H 0.0 **** 0.06
19216 C 163.43917651964313 111.72438465750622 226.01211771626797 C 0.0 **** -0.24
19217 H 163.69549295362617 111.30906321142868 225.0369452511303 H 0.0 **** 0.06
19218 H 163.93508843662198 112.68726942805631 226.1379574668427 H 0.0 **** 0.06
19219 H 163.76734966439471 111.04098295526202 226.7946155409187 H 0.0 **** 0.06
19220 H 162.3596011054829 111.85889908045385 226.07659362993707 H 0.0 **** 0.06
19221 C 238.22786488058978 89.32060856260205 91.6184241949272 C 0.0 **** -0.24
19222 H 238.40257291001132 89.14779690676096 90.55640320324147 H 0.0 **** 0.06
19223 H 237.27049376962566 89.82369752671747 91.75165105741391 H 0.0 **** 0.06
19224 H 239.02663410788512 89.94529069736234 92.02039348455014 H 0.0 **** 0.06
19225 H 238.21404873158514 88.36634898849405 92.14473316107217 H 0.0 **** 0.06
19226 C 166.76363991814304 160.527308689346 68.359615764404 C 0.0 **** -0.24
19227 H 165.92574195766042 161.10499638414262 68.7489874145102 H 0.0 **** 0.06
19228 H 166.4172059115612 159.88890156122415 67.54631005801892 H 0.0 **** 0.06
19229 H 167.18092212389678 159.9092046325216 69.15431211139116 H 0.0 **** 0.06
19230 H 167.53050458689836 161.20598721170455 67.98686733596199 H 0.0 **** 0.06
19231 C 32.22743428041244 133.19009087691705 190.9438391529327 C 0.0 **** -0.24
19232 H 32.90290036759356 134.03803952293217 190.82809801385713 H 0.0 **** 0.06
19233 H 32.15624716086302 132.65175899167323 189.99812961486992 H 0.0 **** 0.06
19234 H 31.238869243403485 133.5498475171874 191.2315050760751 H 0.0 **** 0.06
19235 H 32.61052680724637 132.52266862404116 191.71466273485117 H 0.0 **** 0.06
19236 C 161.55423561118607 27.018893220262214 115.84929107966664 C 0.0 **** -0.24
19237 H 162.07494773113882 26.52066494258088 116.66695532658957 H 0.0 **** 0.06
19238 H 162.0141968977361 27.989701064612404 115.66371334440203 H 0.0 **** 0.06
19239 H 160.50687156774416 27.15931431609465 116.11835767127931 H 0.0 **** 0.06
19240 H 161.61914485141267 26.407412665859056 114.94972414572638 H 0.0 **** 0.06
19241 C 267.39143250384456 229.4662133607642 80.30806867432347 C 0.0 **** -0.24
19242 H 266.5797022506612 228.7389292234076 80.33250494044358 H 0.0 **** 0.06
19243 H 268.18915723643823 229.09907654257876 79.66094568301702 H 0.0 **** 0.06
19244 H 267.77851998851764 229.61214848833754 81.31571621211543 H 0.0 **** 0.06
19245 H 267.0175392560369 230.4138359699802 79.92121136636618 H 0.0 **** 0.06
19246 C 41.95052899218217 59.21281720055015 215.36054862112465 C 0.0 **** -0.24
19247 H 41.476644345952934 60.1794163655444 215.52741006074473 H 0.0 **** 0.06
19248 H 42.55277446036524 58.94900549694728 216.23022392456733 H 0.0 **** 0.06
19249 H 42.58979393083246 59.269631066756006 214.4790437280443 H 0.0 **** 0.06
19250 H 41.18381092377845 58.4540384212537 215.20481000514968 H 0.0 **** 0.06
19251 C 288.35204293584536 290.5902293541865 125.20705972235308 C 0.0 **** -0.24
19252 H 289.38488569455535 290.5250346383768 125.55024456737067 H 0.0 **** 0.06
19253 H 288.1082096151346 289.70425268653537 124.6195999259362 H 0.0 **** 0.06
19254 H 288.23063659941675 291.47990354299407 124.59007132381862 H 0.0 **** 0.06
19255 H 287.68640465965933 290.65079235324765 126.06780658190175 H 0.0 **** 0.06
19256 C 206.70823215430312 194.10219280585687 249.4671348125524 C 0.0 **** -0.24
19257 H 205.81447879312645 194.1673603955677 248.84638650141133 H 0.0 **** 0.06
19258 H 206.57912613440243 193.31373812758198 250.20794396576426 H 0.0 **** 0.06
19259 H 206.8688205437112 195.05390966384897 249.97285582038398 H 0.0 **** 0.06
19260 H 207.56924076235848 193.8743874366695 248.8393488321731 H 0.0 **** 0.06
19261 C 153.872843657494 211.2428488412076 306.4914802245738 C 0.0 **** -0.24
19262 H 152.80817549234484 211.3508193042477 306.69504451532566 H 0.0 **** 0.06
19263 H 154.02238990317915 211.0359294338822 305.43122806839966 H 0.0 **** 0.06
19264 H 154.2745953365524 210.4196462713585 307.08269885552 H 0.0 **** 0.06
19265 H 154.3881735912916 212.16601831220243 306.757300725551 H 0.0 **** 0.06
19266 C 50.3684459012365 9.526643544381528 31.709893112562554 C 0.0 **** -0.24
19267 H 50.584328588832534 9.708178498092863 32.76284661413757 H 0.0 **** 0.06
19268 H 51.30301283226697 9.38376945043261 31.166899560850396 H 0.0 **** 0.06
19269 H 49.834277688122626 10.382360465504718 31.29648868262717 H 0.0 **** 0.06
19270 H 49.75163632442721 8.633561578533474 31.61435833353198 H 0.0 **** 0.06
19271 C 19.094600274837603 97.64853449400232 283.07817639147385 C 0.0 **** -0.24
19272 H 19.954268324544046 98.31702510149807 283.10854901436954 H 0.0 **** 0.06
19273 H 18.277725530029556 98.13159734145412 282.54142198812355 H 0.0 **** 0.06
19274 H 18.775554806010575 97.42037338581852 284.0952426863805 H 0.0 **** 0.06
19275 H 19.369745483245424 96.72598319827324 282.5685249772786 H 0.0 **** 0.06
19276 C 84.93480783486379 29.856800469656065 134.73392724890016 C 0.0 **** -0.24
19277 H 85.18064238599703 29.086540741849603 134.0026901624086 H 0.0 **** 0.06
19278 H 84.44315083181746 29.398713944297583 135.59252580442484 H 0.0 **** 0.06
19279 H 84.2668917478675 30.58838134617517 134.2794749734685 H 0.0 **** 0.06
19280 H 85.84868518540364 30.353036115550452 135.06018132286542 H 0.0 **** 0.06
19281 C 170.99550777066048 264.86973372436 152.68413110416765 C 0.0 **** -0.24
19282 H 170.84498612477927 264.14561438915723 151.88265198517865 H 0.0 **** 0.06
19283 H 170.0273532594059 265.241815396055 153.02237130165628 H 0.0 **** 0.06
19284 H 171.59567701275063 265.7009479894736 152.31479646772442 H 0.0 **** 0.06
19285 H 171.51125863172098 264.3894292056884 153.51493490971035 H 0.0 **** 0.06
19286 C 106.76570809102833 130.37230804351097 10.323706558576475 C 0.0 **** -0.24
19287 H 105.95340873997179 129.96809659079 10.926445480945802 H 0.0 **** 0.06
19288 H 106.41766311902148 131.25816553937392 9.791297364449804 H 0.0 **** 0.06
19289 H 107.09254696706276 129.62044429074285 9.60412848463966 H 0.0 **** 0.06
19290 H 107.59992542590155 130.64193179787745 10.971491877833614 H 0.0 **** 0.06
19291 C 190.47394922837077 109.76487374796798 50.77722155174686 C 0.0 **** -0.24
19292 H 191.33653260596782 110.40082304138392 50.97691572791413 H 0.0 **** 0.06
19293 H 189.77788854275525 109.8232771578266 51.61484731544999 H 0.0 **** 0.06
19294 H 190.80392224419762 108.73467273794839 50.64924877793774 H 0.0 **** 0.06
19295 H 189.9771594669195 110.1029078641325 49.8682428855528 H 0.0 **** 0.06
19296 C 167.52590604899217 118.33523001240113 268.42689177438314 C 0.0 **** -0.24
19297 H 166.99293857346873 119.27745539235997 268.3053872617099 H 0.0 **** 0.06
19298 H 168.42577085336467 118.34540491462113 267.8121998569366 H 0.0 **** 0.06
19299 H 166.88300811880902 117.51141521257841 268.1158519381146 H 0.0 **** 0.06
19300 H 167.8017393851989 118.20521474039367 269.47316484949306 H 0.0 **** 0.06
19301 C 278.3634237093216 11.749898044443512 10.19796999428931 C 0.0 **** -0.24
19302 H 279.43811179718756 11.578060526633095 10.145713633820307 H 0.0 **** 0.06
19303 H 277.93353684349967 11.665628754353236 9.199433403456794 H 0.0 **** 0.06
19304 H 278.17438082797594 12.748109334364642 10.591711477426799 H 0.0 **** 0.06
19305 H 277.90824581429916 11.00693391348814 10.85363434312373 H 0.0 **** 0.06
19306 C 280.0755307426925 209.0787136728879 199.25311331587687 C 0.0 **** -0.24
19307 H 279.45985570821057 208.36681655920285 198.70475750585803 H 0.0 **** 0.06
19308 H 279.91162140175396 208.95322839268812 200.32273685528952 H 0.0 **** 0.06
19309 H 279.8060802257272 210.0938968839941 198.95985434894686 H 0.0 **** 0.06
19310 H 281.1267259744311 208.90178550484518 199.02321472331028 H 0.0 **** 0.06
19311 C 200.02236764331548 313.58415891463403 273.34965623485084 C 0.0 **** -0.24
19312 H 199.43236163039285 313.6936712601507 274.2593514029032 H 0.0 **** 0.06
19313 H 199.53472569488093 312.8713858513443 272.68460267274503 H 0.0 **** 0.06
19314 H 201.01805443073226 313.22074207829314 273.6051858365157 H 0.0 **** 0.06
19315 H 200.10523654945126 314.55005722472066 272.85241228637335 H 0.0 **** 0.06
19316 C 293.5690204125733 50.142459589660575 107.79456683854426 C 0.0 **** -0.24
19317 H 292.9478127044095 50.88323786915083 108.29628076707934 H 0.0 **** 0.06
19318 H 293.0107085902609 49.21188720008658 107.68891983156448 H 0.0 **** 0.06
19319 H 294.46826798136686 49.96261940793838 108.38354278712177 H 0.0 **** 0.06
19320 H 293.8489855424465 50.511660581927885 106.80821319964605 H 0.0 **** 0.06
19321 C 164.9252557372414 8.443628203857415 180.660732339148 C 0.0 **** -0.24
19322 H 163.94170870416872 8.884628697037954 180.82642830798403 H 0.0 **** 0.06
19323 H 165.68093756517163 9.044237221470482 181.16723814748934 H 0.0 **** 0.06
19324 H 165.13628398496195 8.418310955336139 179.59178263766813 H 0.0 **** 0.06
19325 H 164.94075641599125 7.42921596362865 181.05830482602812 H 0.0 **** 0.06
19326 C 192.70962355959068 169.88147755065842 177.34292712371672 C 0.0 **** -0.24
19327 H 193.31936178980254 169.74970510703685 176.44890605848173 H 0.0 **** 0.06
19328 H 191.87841154740153 169.17603896085961 177.32244931397838 H 0.0 **** 0.06
19329 H 192.32212716420764 170.89944688878631 177.3711816124677 H 0.0 **** 0.06
19330 H 193.31811119199483 169.6994565944658 178.22769744087577 H 0.0 **** 0.06
19331 C 232.51647461680332 303.54677385730776 254.67398167506332 C 0.0 **** -0.24
19332 H 232.59224886409936 304.29223986904134 253.88237063498795 H 0.0 **** 0.06
19333 H 233.40118721731767 303.5992170506993 255.3088475489184 H 0.0 **** 0.06
19334 H 232.44417391974457 302.5534052121561 254.2303808442779 H 0.0 **** 0.06
19335 H 231.6265765808252 303.74312593100524 255.2722606234184 H 0.0 **** 0.06
19336 C 191.16116623553705 306.5739024091936 242.9095208144765 C 0.0 **** -0.24
19337 H 192.24925346628947 306.5160065618204 242.9498767648176 H 0.0 **** 0.06
19338 H 190.85856759823463 307.6025377970908 242.71234156768972 H 0.0 **** 0.06
19339 H 190.74424793649735 306.24858116310526 243.8620183542764 H 0.0 **** 0.06
19340 H 190.79360538498685 305.92688611299485 242.1122885465792 H 0.0 **** 0.06
19341 C 203.5623492940585 257.84422657327116 208.11945434854545 C 0.0 **** -0.24
19342 H 203.00471264900875 256.91004658692793 208.1941569605366 H 0.0 **** 0.06
19343 H 203.42945735683685 258.26771156868057 207.12386681244436 H 0.0 **** 0.06
19344 H 204.62029241561544 257.65059628236594 208.2958006292791 H 0.0 **** 0.06
19345 H 203.19274489469058 258.5476843159802 208.86632793050967 H 0.0 **** 0.06
19346 C 58.817311138632846 295.6302670120305 37.46198433885684 C 0.0 **** -0.24
19347 H 59.83773112796473 295.9221545802004 37.71364095101629 H 0.0 **** 0.06
19348 H 58.53397935362861 294.75672900894335 38.05074899065474 H 0.0 **** 0.06
19349 H 58.76158150342238 295.38637346028383 36.4006943234383 H 0.0 **** 0.06
19350 H 58.138615032449536 296.4541105719293 37.68271207623519 H 0.0 **** 0.06
19351 C 50.124262813324606 275.64821517458563 275.8795490609745 C 0.0 **** -0.24
19352 H 50.244456637274766 276.72891719718325 275.7949562754708 H 0.0 **** 0.06
19353 H 50.287862057695975 275.3447416560065 276.9140220981893 H 0.0 **** 0.06
19354 H 50.84860723156379 275.1515174896103 275.2349942396155 H 0.0 **** 0.06
19355 H 49.11539176264256 275.3707586068171 275.5741191901617 H 0.0 **** 0.06
19356 C 104.50999742603267 264.77253366739853 43.120483425031296 C 0.0 **** -0.24
19357 H 104.11895792796554 265.6218083619757 43.68090376255441 H 0.0 **** 0.06
19358 H 104.19718884378696 263.8451425980699 43.60089153072283 H 0.0 **** 0.06
19359 H 105.59846678143919 264.8225239780896 43.09956024846622 H 0.0 **** 0.06
19360 H 104.12551983484028 264.8015064033003 42.10109051200203 H 0.0 **** 0.06
19361 C 52.60268429901001 134.28287583909497 43.95681353999413 C 0.0 **** -0.24
19362 H 53.38515583328564 133.65963153328335 44.3891966816951 H 0.0 **** 0.06
19363 H 53.05518420831501 135.15431503579438 43.482004193784405 H 0.0 **** 0.06
19364 H 51.922600089286504 134.6095916380531 44.74312429396804 H 0.0 **** 0.06
19365 H 52.05134456565804 133.7091538203756 43.21297761316026 H 0.0 **** 0.06
19366 C 154.42062434406222 294.94612050377475 33.03169120325646 C 0.0 **** -0.24
19367 H 153.42389164907655 294.7015205361063 32.662676099642 H 0.0 **** 0.06
19368 H 154.39446662522636 295.03309641089356 34.11823679297888 H 0.0 **** 0.06
19369 H 154.74566634387958 295.8914783473484 32.59805934017069 H 0.0 **** 0.06
19370 H 155.11553408058967 294.1564918512829 32.74646077415625 H 0.0 **** 0.06
19371 C 248.9087650159397 151.13184808650135 190.7187212506385 C 0.0 **** -0.24
19372 H 248.67564193916127 151.19651358428217 189.6562757928004 H 0.0 **** 0.06
19373 H 248.91331430472252 150.0862066493071 191.02657452574852 H 0.0 **** 0.06
19374 H 248.1567973761645 151.67610490870538 191.28931000471954 H 0.0 **** 0.06
19375 H 249.8904123312414 151.57015275990057 190.90122033512415 H 0.0 **** 0.06
19376 C 136.23525752116166 58.57862170862444 219.94217867580278 C 0.0 **** -0.24
19377 H 135.27684186677936 58.24636935157778 219.5430769905056 H 0.0 **** 0.06
19378 H 136.0762383972314 59.427184404884656 220.60658639154775 H 0.0 **** 0.06
19379 H 136.88616018532576 58.87629550299201 219.1205526170029 H 0.0 **** 0.06
19380 H 136.6989178413022 57.76356278224125 220.497725616425 H 0.0 **** 0.06
19381 C 208.1891164967945 38.252447810618804 102.99082406760019 C 0.0 **** -0.24
19382 H 207.26182741875834 37.7506807766089 103.26960025901644 H 0.0 **** 0.06
19383 H 207.97727289239577 39.29214418988283 102.73744276417793 H 0.0 **** 0.06
19384 H 208.62708103609955 37.750205400155124 102.1287643426661 H 0.0 **** 0.06
19385 H 208.88692497244676 38.21523597707275 103.82686650493648 H 0.0 **** 0.06
19386 C 308.0149410593259 311.1223848239388 131.75800496246623 C 0.0 **** -0.24
19387 H 307.0588812939691 310.59956723090306 131.73033115439674 H 0.0 **** 0.06
19388 H 307.9662082763972 311.92873706823156 132.4901446528305 H 0.0 **** 0.06
19389 H 308.2319479912567 311.5365782167979 130.77384685994795 H 0.0 **** 0.06
19390 H 308.80245137235175 310.4229973674263 132.03917047189807 H 0.0 **** 0.06
19391 C 31.052601669254102 7.156525794832191 313.1438795352547 C 0.0 **** -0.24
19392 H 31.52802416507552 7.900991336834011 312.50499781018004 H 0.0 **** 0.06
19393 H 29.98680055597717 7.111852571561428 312.9183609260864 H 0.0 **** 0.06
19394 H 31.192893653004887 7.434095901384069 314.1886380460303 H 0.0 **** 0.06
19395 H 31.504708163856748 6.181852852137865 312.9626925647822 H 0.0 **** 0.06
19396 C 92.52764918966832 175.76826262672648 63.79882430123055 C 0.0 **** -0.24
19397 H 93.55236732320631 175.59220378634046 63.47014606064636 H 0.0 **** 0.06
19398 H 92.46842573396191 176.7351620275483 64.29807622051379 H 0.0 **** 0.06
19399 H 92.22929951089742 174.98217749391034 64.49287904371792 H 0.0 **** 0.06
19400 H 91.86343082985854 175.7625127939084 62.93575984776518 H 0.0 **** 0.06
19401 C 3.3634027331329293 175.89434018662672 52.984031752495014 C 0.0 **** -0.24
19402 H 3.8049957198140305 175.34910238563464 52.15091308348829 H 0.0 **** 0.06
19403 H 4.151591763403289 176.22927034892007 53.65780484908046 H 0.0 **** 0.06
19404 H 2.677037737205538 175.24055749288692 53.523925853483604 H 0.0 **** 0.06
19405 H 2.8174590197447884 176.75874699732134 52.604714362926444 H 0.0 **** 0.06
19406 C 284.0774548923829 152.63057418853765 51.751444188107314 C 0.0 **** -0.24
19407 H 283.9016783208797 153.34472768106474 50.94764649526775 H 0.0 **** 0.06
19408 H 285.0114706505743 152.0996726358029 51.56743208335615 H 0.0 **** 0.06
19409 H 283.2554598284267 151.91693083898735 51.789897106538575 H 0.0 **** 0.06
19410 H 284.14213801775435 153.16188059269945 52.70135152634924 H 0.0 **** 0.06
19411 C 74.04352624781512 236.86446420613882 243.8978043993873 C 0.0 **** -0.24
19412 H 74.90241511943816 237.50913173822215 243.71199797348734 H 0.0 **** 0.06
19413 H 73.13204340912282 237.46216934674197 243.88847971314647 H 0.0 **** 0.06
19414 H 74.1530398886747 236.38548783111446 244.87170673158386 H 0.0 **** 0.06
19415 H 73.98758495343992 236.10157448915385 243.12246628408903 H 0.0 **** 0.06
19416 C 70.12331395478776 281.2086547807984 29.212555740657763 C 0.0 **** -0.24
19417 H 70.34444980630562 281.3996557317095 28.16223725377523 H 0.0 **** 0.06
19418 H 69.38770805404016 281.93259698664997 29.565759647323546 H 0.0 **** 0.06
19419 H 71.03725237350923 281.3034327384371 29.79833902169821 H 0.0 **** 0.06
19420 H 69.7235037968212 280.20113737864165 29.321880332703643 H 0.0 **** 0.06
19421 C 12.21488764676593 89.48259533142846 129.01667431459478 C 0.0 **** -0.24
19422 H 12.568050734928875 89.53861484417234 130.04677188335666 H 0.0 **** 0.06
19423 H 11.388678467310683 88.7737974357293 128.95476883715872 H 0.0 **** 0.06
19424 H 13.028486813605241 89.15005846395812 128.37127290324088 H 0.0 **** 0.06
19425 H 11.874226541890494 90.46708985406417 128.6950302577366 H 0.0 **** 0.06
19426 C 256.8447728493222 16.78347967462736 54.927995008883244 C 0.0 **** -0.24
19427 H 256.59393408674816 17.0901075911554 53.91204343994815 H 0.0 **** 0.06
19428 H 257.85865553877676 17.106895098480024 55.165082985316985 H 0.0 **** 0.06
19429 H 256.78040886153303 15.69852897228948 55.006567252743366 H 0.0 **** 0.06
19430 H 256.1444139327173 17.23971990723703 55.627650344280426 H 0.0 **** 0.06
19431 C 221.7974481041032 92.55441270856727 152.5222016603887 C 0.0 **** -0.24
19432 H 221.6067742364558 92.89503569168397 153.5403543078936 H 0.0 **** 0.06
19433 H 221.2352859331832 93.17238421550309 151.82194152234 H 0.0 **** 0.06
19434 H 221.4848641625196 91.51532712227717 152.42231787523832 H 0.0 **** 0.06
19435 H 222.86230041610509 92.63598809861858 152.3049015042194 H 0.0 **** 0.06
19436 C 35.163694052019 45.299298917965785 254.11557704927728 C 0.0 **** -0.24
19437 H 36.24098847128516 45.44128863576418 254.19989788295265 H 0.0 **** 0.06
19438 H 34.65305949971233 46.22436202789373 254.38437799694742 H 0.0 **** 0.06
19439 H 34.849127636843946 44.50196856716357 254.78886943127802 H 0.0 **** 0.06
19440 H 34.91200477537129 45.02993898661154 253.09046872366002 H 0.0 **** 0.06
19441 C 43.673473920214576 5.591483416723406 118.18197401780162 C 0.0 **** -0.24
19442 H 44.426603334008576 4.84874233076539 117.91840027799336 H 0.0 **** 0.06
19443 H 44.16502170601407 6.523927840617091 118.46049605107004 H 0.0 **** 0.06
19444 H 43.08192288381787 5.22684281015853 119.0221406395818 H 0.0 **** 0.06
19445 H 43.02034775701787 5.766420685352671 117.32685910256134 H 0.0 **** 0.06
19446 C 202.20979663109415 11.092252299866175 133.54956155787397 C 0.0 **** -0.24
19447 H 202.79069100510947 10.17810326097731 133.67198954015467 H 0.0 **** 0.06
19448 H 202.84731364941916 11.87634964207912 133.14074159697626 H 0.0 **** 0.06
19449 H 201.82093041051974 11.40744608001475 134.51722848826574 H 0.0 **** 0.06
19450 H 201.37984056231664 10.90577378429387 132.8680741869506 H 0.0 **** 0.06
19451 C 291.9648530294306 106.30020749599723 189.80624755772982 C 0.0 **** -0.24
19452 H 291.0735757562561 105.8795888718291 189.33961692276728 H 0.0 **** 0.06
19453 H 292.84228488001816 105.73932193965672 189.48433904555134 H 0.0 **** 0.06
19454 H 291.870509466141 106.23804421650823 190.8905936144855 H 0.0 **** 0.06
19455 H 292.0707850655046 107.3433493126062 189.50964698342898 H 0.0 **** 0.06
19456 C 298.2750348120591 286.8665340276187 166.08021519706182 C 0.0 **** -0.24
19457 H 297.685281781593 286.86150154978066 165.16367147950598 H 0.0 **** 0.06
19458 H 299.30827913350834 286.606134081661 165.84847095267878 H 0.0 **** 0.06
19459 H 297.8650917884842 286.13932213050725 166.78144263972956 H 0.0 **** 0.06
19460 H 298.24308912578704 287.8604060182009 166.52631416374174 H 0.0 **** 0.06
19461 C 232.53987480478577 45.466754780063184 110.84222164906754 C 0.0 **** -0.24
19462 H 232.6694344695053 46.051288594733364 109.93080414461022 H 0.0 **** 0.06
19463 H 231.8173715125547 44.67082290112086 110.66213337611512 H 0.0 **** 0.06
19464 H 232.1773176592402 46.114346975622766 111.64007063927858 H 0.0 **** 0.06
19465 H 233.49632356195025 45.03117587672455 111.13245456722052 H 0.0 **** 0.06
19466 C 31.767891393622506 104.67052170569676 17.314198537681733 C 0.0 **** -0.24
19467 H 31.43974030106341 105.62442319564752 17.725875781771578 H 0.0 **** 0.06
19468 H 32.22992414341263 104.07467828169217 18.101768664807494 H 0.0 **** 0.06
19469 H 32.49248807120216 104.84735003603387 16.519839838589604 H 0.0 **** 0.06
19470 H 30.908980194957962 104.13442150273556 16.909892369840435 H 0.0 **** 0.06
19471 C 33.68721405558037 151.3111808334034 153.5511013344514 C 0.0 **** -0.24
19472 H 34.36581602800848 151.91409760736917 154.15461113322698 H 0.0 **** 0.06
19473 H 32.76470559639577 151.13732577045812 154.10542606929357 H 0.0 **** 0.06
19474 H 34.158825953464145 150.35539654412997 153.32149087603267 H 0.0 **** 0.06
19475 H 33.461607184073046 151.83693661054366 152.6236905575309 H 0.0 **** 0.06
19476 C 286.5789881521754 122.25209679302651 302.5247935027065 C 0.0 **** -0.24
19477 H 285.5090618400365 122.0492732265692 302.4706027226935 H 0.0 **** 0.06
19478 H 287.10797153564346 121.33973360431096 302.80152504232643 H 0.0 **** 0.06
19479 H 286.7643435396586 123.02267047241716 303.2728482688894 H 0.0 **** 0.06
19480 H 286.93274381392786 122.59644853802345 301.55294260985033 H 0.0 **** 0.06
19481 C 210.26024688903937 25.735504698740783 246.2224254656224 C 0.0 **** -0.24
19482 H 210.99714710848525 26.538474887777596 246.2463481155374 H 0.0 **** 0.06
19483 H 210.7655296786371 24.775309727153456 246.32873290277988 H 0.0 **** 0.06
19484 H 209.72466954566633 25.761829850857424 245.27361608323838 H 0.0 **** 0.06
19485 H 209.5537694045989 25.867616573885073 247.04172172769765 H 0.0 **** 0.06
19486 C 144.88187673168542 46.114227978253666 308.0120576783021 C 0.0 **** -0.24
19487 H 144.57796333973252 46.84909038698831 307.26718101977326 H 0.0 **** 0.06
19488 H 145.96045139781313 45.963400505591125 307.95337957863046 H 0.0 **** 0.06
19489 H 144.37149100730485 45.17023926662708 307.82181816283156 H 0.0 **** 0.06
19490 H 144.6196945508457 46.47460626381829 309.0065134806466 H 0.0 **** 0.06
19491 C 118.06554340890557 294.42261371727017 44.99049941861236 C 0.0 **** -0.24
19492 H 117.89324763251994 293.79315959634 45.86374395859505 H 0.0 **** 0.06
19493 H 117.75495576915046 293.889890786906 44.09179426860075 H 0.0 **** 0.06
19494 H 119.1267640398483 294.6650034767418 44.92211569443725 H 0.0 **** 0.06
19495 H 117.48806527020798 295.34277312869915 45.08637440240702 H 0.0 **** 0.06
19496 C 100.11135198116756 141.54084998822097 259.37209287044993 C 0.0 **** -0.24
19497 H 99.74858029410146 141.523940157998 260.4002247269924 H 0.0 **** 0.06
19498 H 99.39191770716033 141.03798571162972 258.7254846453899 H 0.0 **** 0.06
19499 H 101.07087874583303 141.0256309827261 259.3177594675069 H 0.0 **** 0.06
19500 H 100.23362406956491 142.57365520064587 259.04736178946547 H 0.0 **** 0.06
19501 C 28.221910560105357 247.10105519066138 209.83051511351192 C 0.0 **** -0.24
19502 H 28.277841156015484 246.014172562545 209.76717261067463 H 0.0 **** 0.06
19503 H 28.574779464803328 247.42576508582354 210.810005989255 H 0.0 **** 0.06
19504 H 27.188923827786653 247.41887543643966 209.6919653087205 H 0.0 **** 0.06
19505 H 28.8465249000933 247.54259470031104 209.0538677427918 H 0.0 **** 0.06
19506 C 257.93936551002577 148.71533936808717 85.25414411357661 C 0.0 **** -0.24
19507 H 257.8196357857626 147.63223630098173 85.25932931054047 H 0.0 **** 0.06
19508 H 256.9706435732603 149.18718782144794 85.08711357713557 H 0.0 **** 0.06
19509 H 258.62416964418384 149.00171036959608 84.45609067165759 H 0.0 **** 0.06
19510 H 258.34287089006904 149.04137903607204 86.21213413833578 H 0.0 **** 0.06
19511 C 71.77020659474408 87.41601796531336 7.834071576995996 C 0.0 **** -0.24
19512 H 71.69190448367925 87.65624649543432 6.773514466322126 H 0.0 **** 0.06
19513 H 70.88475149757818 86.86405906607311 8.148288049076712 H 0.0 **** 0.06
19514 H 71.84692732910503 88.33866668434399 8.40962750096213 H 0.0 **** 0.06
19515 H 72.6583820684429 86.80765686232854 8.00258401829376 H 0.0 **** 0.06
19516 C 40.70534830777132 51.09910522452833 310.4594433519535 C 0.0 **** -0.24
19517 H 41.06261097090356 50.140791811978914 310.08371853429605 H 0.0 **** 0.06
19518 H 39.64957868864224 51.01667835085422 310.71968300412334 H 0.0 **** 0.06
19519 H 40.83125245294673 51.86084041154817 309.68966610918284 H 0.0 **** 0.06
19520 H 41.27729081580446 51.37840253879233 311.34401394008376 H 0.0 **** 0.06
19521 C 183.3134392623789 237.45648991269076 2.643568476223436 C 0.0 **** -0.24
19522 H 183.25750296132054 237.90495547225242 1.6520287045070745 H 0.0 **** 0.06
19523 H 183.03591728590914 238.19707365876425 3.393754865255744 H 0.0 **** 0.06
19524 H 184.3319165465117 237.11376918410957 2.830174693911431 H 0.0 **** 0.06
19525 H 182.63031505383304 236.60912329145927 2.697739249758399 H 0.0 **** 0.06
19526 C 279.00805805356 240.44860709979267 204.47122680046272 C 0.0 **** -0.24
19527 H 279.0998916515684 241.18508356266835 205.27032214247203 H 0.0 **** 0.06
19528 H 277.9554962637569 240.31049439814586 204.2240003655059 H 0.0 **** 0.06
19529 H 279.43257849569164 239.5006555219355 204.80115489611455 H 0.0 **** 0.06
19530 H 279.545683693314 240.79985100503802 203.58992676928392 H 0.0 **** 0.06
19531 C 308.83516851350623 156.64188120742284 295.4248967773025 C 0.0 **** -0.24
19532 H 309.6288322877271 156.84729861014193 294.70660515559433 H 0.0 **** 0.06
19533 H 308.3885170046608 157.58187443763813 295.7501958863513 H 0.0 **** 0.06
19534 H 309.25064342433177 156.11945884993298 296.2865781734848 H 0.0 **** 0.06
19535 H 308.0726275925264 156.0203605199507 294.95452167921513 H 0.0 **** 0.06
19536 C 75.60281921140208 38.50233995792087 160.59617953856952 C 0.0 **** -0.24
19537 H 75.41817348046644 38.594098697425466 161.66655453744892 H 0.0 **** 0.06
19538 H 75.52611758694755 37.45445775190723 160.30317936678915 H 0.0 **** 0.06
19539 H 76.6032270714021 38.87139567591748 160.36708054922622 H 0.0 **** 0.06
19540 H 74.86529982672405 39.08883076698987 160.0484441670414 H 0.0 **** 0.06
19541 C 9.300405704099873 168.582610966978 70.85557263231391 C 0.0 **** -0.24
19542 H 8.91285111323944 169.23295324033631 70.07175969937438 H 0.0 **** 0.06
19543 H 8.598221356265569 168.5596235591027 71.68949593502577 H 0.0 **** 0.06
19544 H 10.262219616282323 168.9622619025531 71.20018475460785 H 0.0 **** 0.06
19545 H 9.42761786792262 167.57444106050178 70.460480418234 H 0.0 **** 0.06
19546 C 311.19181494559865 262.2318509519584 220.01015279114847 C 0.0 **** -0.24
19547 H 311.81846413442486 262.4899578416273 220.86413053077 H 0.0 **** 0.06
19548 H 310.20039591087334 262.66643970387537 220.14327780957842 H 0.0 **** 0.06
19549 H 311.1060100504102 261.14756762979107 219.9381073352398 H 0.0 **** 0.06
19550 H 311.64087351005657 262.6229054541776 219.09781890125709 H 0.0 **** 0.06
19551 C 13.530375386137749 255.5733900795712 143.4770280637462 C 0.0 **** -0.24
19552 H 14.393350614015674 255.34943597185327 142.8504040448073 H 0.0 **** 0.06
19553 H 13.63166470782943 256.5772665301442 143.88876571416708 H 0.0 **** 0.06
19554 H 13.475526988120237 254.8502147790943 144.2917080592811 H 0.0 **** 0.06
19555 H 12.621766344846506 255.51578837798593 142.87885250615864 H 0.0 **** 0.06
19556 C 270.2062614796699 16.061214626171193 227.15784220898195 C 0.0 **** -0.24
19557 H 269.57684176093517 15.589724181547481 226.40312244104723 H 0.0 **** 0.06
19558 H 270.8540543653205 15.310378593627306 227.61043029989187 H 0.0 **** 0.06
19559 H 269.5773514932463 16.51047958188657 227.9259975158394 H 0.0 **** 0.06
19560 H 270.81615755039775 16.83375242511211 226.68974127843745 H 0.0 **** 0.06
19561 C 238.74046911824232 38.47694600831778 205.27139277481638 C 0.0 **** -0.24
19562 H 239.128734283187 39.49538666707119 205.2359789175565 H 0.0 **** 0.06
19563 H 239.49149782169985 37.81715078070087 205.70590571417085 H 0.0 **** 0.06
19564 H 238.50333131246126 38.143419380109236 204.26140267743006 H 0.0 **** 0.06
19565 H 237.83836953781108 38.45355318315981 205.88329266498204 H 0.0 **** 0.06
19566 C 216.76194868279526 246.51128347379557 86.41892589792462 C 0.0 **** -0.24
19567 H 217.1274715635842 245.66677519361542 87.00325126865206 H 0.0 **** 0.06
19568 H 216.50368471150233 247.33097280741347 87.08946334498984 H 0.0 **** 0.06
19569 H 215.87927808642524 246.20879775074695 85.85731896584235 H 0.0 **** 0.06
19570 H 217.5392141489071 246.8377792820877 85.72764720262683 H 0.0 **** 0.06
19571 C 296.8439518479647 75.7546838187408 215.23582195543952 C 0.0 **** -0.24
19572 H 297.0824484575137 75.27397991507306 216.1847674100143 H 0.0 **** 0.06
19573 H 297.67535846118335 76.39352769124221 214.93439715632832 H 0.0 **** 0.06
19574 H 295.9441255305641 76.3594961687424 215.35141595655716 H 0.0 **** 0.06
19575 H 296.67549059999305 74.99336757754932 214.47509747681335 H 0.0 **** 0.06
19576 C 107.2041649826721 194.45900084612248 16.29054850929532 C 0.0 **** -0.24
19577 H 106.61460195806856 195.07064878756034 16.973858532625542 H 0.0 **** 0.06
19578 H 107.76138215828291 193.71551796740687 16.859373238385558 H 0.0 **** 0.06
19579 H 107.89928304952221 195.0949402963572 15.741897216510907 H 0.0 **** 0.06
19580 H 106.53867273029036 193.95719885671917 15.588205163913784 H 0.0 **** 0.06
19581 C 298.1490328719285 39.09266521103379 116.34540812094667 C 0.0 **** -0.24
19582 H 297.5721006148352 40.005138055390205 116.19830671222346 H 0.0 **** 0.06
19583 H 298.9762230520279 39.06653093762361 115.6357294910382 H 0.0 **** 0.06
19584 H 297.5062086494705 38.226350766057294 116.18572513365393 H 0.0 **** 0.06
19585 H 298.5420582902509 39.070657210272174 117.36279498299729 H 0.0 **** 0.06
19586 C 118.53443157356222 38.155027292265004 7.2848055624377395 C 0.0 **** -0.24
19587 H 117.72562810949367 37.47621645844242 7.554418537361769 H 0.0 **** 0.06
19588 H 118.25071254842706 38.726769574142395 6.401361944128027 H 0.0 **** 0.06
19589 H 119.43501741212839 37.57932935040424 7.072112414130913 H 0.0 **** 0.06
19590 H 118.72670569708862 38.83743919386461 8.113511187976158 H 0.0 **** 0.06
19591 C 23.938374450727224 285.4400875396775 180.53986597010595 C 0.0 **** -0.24
19592 H 22.864923769591087 285.6247497602718 180.57736061030027 H 0.0 **** 0.06
19593 H 24.34421274319243 285.83966435230167 179.61012944605318 H 0.0 **** 0.06
19594 H 24.123447366023584 284.3670284891312 180.5855347626632 H 0.0 **** 0.06
19595 H 24.420008720227088 285.92795347388227 181.38695900404338 H 0.0 **** 0.06
19596 C 224.565873594552 121.05356944186988 307.14482650725455 C 0.0 **** -0.24
19597 H 225.15790842419838 120.77289214731056 308.0161716562392 H 0.0 **** 0.06
19598 H 225.22987436254957 121.37234184999323 306.3418953284811 H 0.0 **** 0.06
19599 H 223.89564192145656 121.872145120173 307.4098825761265 H 0.0 **** 0.06
19600 H 223.9793512579436 120.19667081174933 306.813461698885 H 0.0 **** 0.06
19601 C 38.37560072995808 26.351499218548582 174.47490328113656 C 0.0 **** -0.24
19602 H 38.52890455541808 25.276273697303765 174.56749035298344 H 0.0 **** 0.06
19603 H 37.30732695080482 26.56288931583498 174.43585579199566 H 0.0 **** 0.06
19604 H 38.850804485674104 26.708022813474628 173.56052006229078 H 0.0 **** 0.06
19605 H 38.816405014765394 26.8565513829208 175.33439920537114 H 0.0 **** 0.06
19606 C 129.76484960989282 197.2480409738709 280.33144941996915 C 0.0 **** -0.24
19607 H 130.45806370793824 197.78572840547258 279.6850178400472 H 0.0 **** 0.06
19608 H 129.33611870361588 196.40729155328842 279.78567329946657 H 0.0 **** 0.06
19609 H 128.9674214285582 197.92174919006487 280.6470771925261 H 0.0 **** 0.06
19610 H 130.29670511146878 196.87945881102968 281.208772773156 H 0.0 **** 0.06
19611 C 97.50517430541143 39.037004281744686 144.92104200582668 C 0.0 **** -0.24
19612 H 97.47852957556691 38.276194754940775 144.1411386330733 H 0.0 **** 0.06
19613 H 97.88235705752922 39.97110919326184 144.50413129822064 H 0.0 **** 0.06
19614 H 98.16170616588764 38.70718881984922 145.72633203316155 H 0.0 **** 0.06
19615 H 96.50006723210436 39.19266086065841 145.31193220370412 H 0.0 **** 0.06
19616 C 186.6395633097453 152.67362156499144 125.65794404303304 C 0.0 **** -0.24
19617 H 187.52849683136145 153.28652235856805 125.50948475445045 H 0.0 **** 0.06
19618 H 186.70283883821963 152.16845595821803 126.62225637399084 H 0.0 **** 0.06
19619 H 186.57283301083282 151.93104522222058 124.86264422942199 H 0.0 **** 0.06
19620 H 185.75327337062208 153.30789118785043 125.63726700584223 H 0.0 **** 0.06
19621 C 221.21649730447007 223.1791689567151 171.121331995221 C 0.0 **** -0.24
19622 H 220.97748846522148 222.65072706617013 170.19904392307842 H 0.0 **** 0.06
19623 H 220.34617395263427 223.7458042197777 171.45244540806988 H 0.0 **** 0.06
19624 H 222.04856488089132 223.86158284756925 170.94392233914397 H 0.0 **** 0.06
19625 H 221.49536948253 222.45854522037155 171.89056088958256 H 0.0 **** 0.06
19626 C 265.00418966559533 63.44115814381041 304.6599813628721 C 0.0 **** -0.24
19627 H 264.4576570289575 63.611767544701934 305.5878568191226 H 0.0 **** 0.06
19628 H 264.693031589174 62.49203062427557 304.22458160497575 H 0.0 **** 0.06
19629 H 266.0729500231929 63.41276004916125 304.86875681548764 H 0.0 **** 0.06
19630 H 264.7912701677277 64.24909873738125 303.9599666239389 H 0.0 **** 0.06
19631 C 276.177125096709 60.60537830455104 42.70453400398188 C 0.0 **** -0.24
19632 H 276.1755257891172 60.92861304132538 43.74600992873482 H 0.0 **** 0.06
19633 H 275.15038464484536 60.506164215544175 42.35296330424387 H 0.0 **** 0.06
19634 H 276.6839167750311 59.642420481736394 42.62479827218118 H 0.0 **** 0.06
19635 H 276.70131402229714 61.34274028009756 42.09595973524523 H 0.0 **** 0.06
19636 C 74.95470517252176 16.71176337372323 141.85546957132047 C 0.0 **** -0.24
19637 H 74.47511380175987 15.815077673073844 142.2480344978533 H 0.0 **** 0.06
19638 H 74.73988610562824 17.55510190846823 142.51239136111425 H 0.0 **** 0.06
19639 H 74.572096798274 16.920757073631734 140.85676650610458 H 0.0 **** 0.06
19640 H 76.03189111405109 16.555134249752797 141.80610246465133 H 0.0 **** 0.06
19641 C 267.7167716285568 205.8266169622927 185.71987265372468 C 0.0 **** -0.24
19642 H 268.5680768490321 206.26132388252535 186.242798710363 H 0.0 **** 0.06
19643 H 266.82112408749845 206.4076848792476 185.93719477247754 H 0.0 **** 0.06
19644 H 267.5729086412041 204.7985683611472 186.05275982050694 H 0.0 **** 0.06
19645 H 267.9064518261891 205.83754306129993 184.64682960225736 H 0.0 **** 0.06
19646 C 273.35163339651046 277.8422535065245 226.18317003054327 C 0.0 **** -0.24
19647 H 273.15594198929114 276.86126738261834 225.74978977102694 H 0.0 **** 0.06
19648 H 274.4075876481199 278.08621598400964 226.0664983616178 H 0.0 **** 0.06
19649 H 273.09597625778673 277.8286250060824 227.24226777741444 H 0.0 **** 0.06
19650 H 272.74638052267574 278.59235368810465 225.67261539761333 H 0.0 **** 0.06
19651 C 67.89852748184086 236.92314921492112 153.27638126771257 C 0.0 **** -0.24
19652 H 67.36552083400468 235.9914144802737 153.46157478930633 H 0.0 **** 0.06
19653 H 67.44399664845992 237.43958949525742 152.43072323408308 H 0.0 **** 0.06
19654 H 68.94251968800609 236.70580441356879 153.05046787468092 H 0.0 **** 0.06
19655 H 67.84230755326342 237.55635147250126 154.16148327759953 H 0.0 **** 0.06
19656 C 18.592410873051122 93.05866961733469 70.47853773617524 C 0.0 **** -0.24
19657 H 17.616623800715132 92.60456645232745 70.65014558465228 H 0.0 **** 0.06
19658 H 18.478012995578 94.13761792081746 70.37488913107984 H 0.0 **** 0.06
19659 H 19.027999332377817 92.64858590365472 69.56753916835811 H 0.0 **** 0.06
19660 H 19.247371120332105 92.84250224855168 71.32354962987779 H 0.0 **** 0.06
19661 C 166.71921531668949 87.06023840539495 275.5445556669519 C 0.0 **** -0.24
19662 H 166.24833768976202 88.0429700383904 275.5112067517025 H 0.0 **** 0.06
19663 H 166.77946559984105 86.65186944182904 274.5357424816179 H 0.0 **** 0.06
19664 H 166.12514538214702 86.39482133904755 276.17170110041695 H 0.0 **** 0.06
19665 H 167.7223301602977 87.15305681266804 275.96019216862237 H 0.0 **** 0.06
19666 C 12.851888098254676 208.83001431047862 178.15909773744409 C 0.0 **** -0.24
19667 H 13.433343542001182 209.51032191933038 177.5380804532058 H 0.0 **** 0.06
19668 H 13.373078871420148 208.66467938735366 179.10208177310835 H 0.0 **** 0.06
19669 H 12.728455555701714 207.8794124875809 177.63972991592954 H 0.0 **** 0.06
19670 H 11.871682398677422 209.26576241698348 178.35645713300187 H 0.0 **** 0.06
19671 C 12.387456899604729 25.574739064325826 8.32508443930233 C 0.0 **** -0.24
19672 H 13.253751258603629 26.217933975829084 8.167167550302608 H 0.0 **** 0.06
19673 H 12.429257079218601 25.149568492917098 9.328558448096103 H 0.0 **** 0.06
19674 H 12.392816169732086 24.771589248769033 7.589562180774294 H 0.0 **** 0.06
19675 H 11.475550585812996 26.161603511676248 8.217412052520757 H 0.0 **** 0.06
19676 C 227.51425181524658 84.94359179466775 239.33185380747457 C 0.0 **** -0.24
19677 H 227.20615443531412 84.285140915287 240.1436412125637 H 0.0 **** 0.06
19678 H 227.29402945290917 85.97632059300437 239.5985609153746 H 0.0 **** 0.06
19679 H 226.97153137992336 84.67855416309149 238.4244465487346 H 0.0 **** 0.06
19680 H 228.58554668738347 84.83136879691429 239.16096304760367 H 0.0 **** 0.06
19681 C 277.26155256244226 150.5268257235607 12.182603750822992 C 0.0 **** -0.24
19682 H 278.19375087459423 149.98390506881339 12.339073620215188 H 0.0 **** 0.06
19683 H 276.6398369166769 150.4438913388688 13.075163498096856 H 0.0 **** 0.06
19684 H 276.7322808935595 150.10287673982282 11.329383317116793 H 0.0 **** 0.06
19685 H 277.4818500473653 151.57719169486973 11.989516467952086 H 0.0 **** 0.06
19686 C 232.0110923161505 35.336188350964306 247.20280405099217 C 0.0 **** -0.24
19687 H 232.01159594058805 34.888140662928066 248.19710751137566 H 0.0 **** 0.06
19688 H 230.99228467546476 35.60627907907991 246.92680163203005 H 0.0 **** 0.06
19689 H 232.40587248240953 34.61963916849311 246.4822395214786 H 0.0 **** 0.06
19690 H 232.63653638300738 36.22950019866829 247.2072780757632 H 0.0 **** 0.06
19691 C 105.20633158373948 94.0103094546754 294.7919453234494 C 0.0 **** -0.24
19692 H 104.71164978832414 93.04590048344048 294.90556576894585 H 0.0 **** 0.06
19693 H 105.12324947434351 94.34245222856518 293.75665169598 H 0.0 **** 0.06
19694 H 106.25838205381336 93.91252010648014 295.0595072809605 H 0.0 **** 0.06
19695 H 104.73149525993716 94.74147501838618 295.4472671835783 H 0.0 **** 0.06
19696 C 247.10617720794085 137.5174629079974 142.5090742924318 C 0.0 **** -0.24
19697 H 248.18121654456337 137.46503753729226 142.33757107344937 H 0.0 **** 0.06
19698 H 246.58363970980787 137.01760473017254 141.6929010759635 H 0.0 **** 0.06
19699 H 246.79498350998392 138.5603349505674 142.55492980488154 H 0.0 **** 0.06
19700 H 246.8642406087728 137.0245073135995 143.45093883488457 H 0.0 **** 0.06
19701 C 84.08813668099447 191.71607164051738 5.279428374326315 C 0.0 **** -0.24
19702 H 85.03014664278646 191.61130358376624 4.741922809361327 H 0.0 **** 0.06
19703 H 84.28770466112044 191.78802480986275 6.349538986296949 H 0.0 **** 0.06
19704 H 83.46019653210769 190.84646005418642 5.084463735824059 H 0.0 **** 0.06
19705 H 83.5755963179993 192.61727096689287 4.943301167456809 H 0.0 **** 0.06
19706 C 98.38569170911424 253.07929570787627 14.68090103652952 C 0.0 **** -0.24
19707 H 98.22712924575634 253.5187391713466 15.66606028288031 H 0.0 **** 0.06
19708 H 98.23990510038217 252.00021084610407 14.73683384371229 H 0.0 **** 0.06
19709 H 99.40186928064148 253.29260982082354 14.348257706075074 H 0.0 **** 0.06
19710 H 97.6746547245827 253.5065519316173 13.974576131862094 H 0.0 **** 0.06
19711 C 273.92165597494227 288.67768963749705 19.755424231364998 C 0.0 **** -0.24
19712 H 273.02422971029534 289.0040294268157 20.28097802619709 H 0.0 **** 0.06
19713 H 273.97619143561514 287.5889060477093 19.774385537907335 H 0.0 **** 0.06
19714 H 274.8012061261527 289.0950800325365 20.244965993370954 H 0.0 **** 0.06
19715 H 273.88310161293396 289.0220374389148 18.722321864976323 H 0.0 **** 0.06
19716 C 206.24546567249098 13.932204352169009 94.11397840051708 C 0.0 **** -0.24
19717 H 205.55284814447958 14.762701260896591 93.97115262460144 H 0.0 **** 0.06
19718 H 206.2343393530649 13.293768789739673 93.23044255589065 H 0.0 **** 0.06
19719 H 205.94158363705566 13.352248128639374 94.98605456821065 H 0.0 **** 0.06
19720 H 207.25127711936648 14.321655208969489 94.27007680403202 H 0.0 **** 0.06
19721 C 255.04698035970898 292.68945658279813 205.8811387338984 C 0.0 **** -0.24
19722 H 255.6694738877272 292.34717958288434 206.7080411551513 H 0.0 **** 0.06
19723 H 254.72180829341966 291.8311726074263 205.29129629326474 H 0.0 **** 0.06
19724 H 255.62158038067372 293.36710169162245 205.24979550576933 H 0.0 **** 0.06
19725 H 254.1751615000041 293.2116265464675 206.27476387651535 H 0.0 **** 0.06
19726 C 296.5652077696321 4.2347118568904705 85.67962168936293 C 0.0 **** -0.24
19727 H 296.5845731248529 3.9174363498192264 86.72224654307797 H 0.0 **** 0.06
19728 H 295.69536299899767 3.803224626722155 85.18393308044011 H 0.0 **** 0.06
19729 H 297.4731062892529 3.8951873933363856 85.17994402150396 H 0.0 **** 0.06
19730 H 296.50864452004754 5.322230816757184 85.631067993805 H 0.0 **** 0.06
19731 C 16.88873886938819 2.252302056027034 143.17072843087485 C 0.0 **** -0.24
19732 H 16.03125249669266 1.8595558891947945 143.71607503053968 H 0.0 **** 0.06
19733 H 16.93469969650924 1.791443286046487 142.1840723885012 H 0.0 **** 0.06
19734 H 17.803307353605092 2.0263861284731632 143.72026081154596 H 0.0 **** 0.06
19735 H 16.787171781314385 3.3324953339419636 143.06311355428127 H 0.0 **** 0.06
19736 C 183.28791803138557 0.46544372210742324 179.34086995334775 C 0.0 **** -0.24
19737 H 182.61264450873438 -0.3872245945771624 179.40781589156745 H 0.0 **** 0.06
19738 H 182.98855247400707 1.2231399737341775 180.0657858162782 H 0.0 **** 0.06
19739 H 183.24352011640656 0.8858766309178918 178.3363624407923 H 0.0 **** 0.06
19740 H 184.30583595597318 0.140884084703913 179.55448288862465 H 0.0 **** 0.06
19741 C 272.9310654798425 89.2385313674234 280.82725474297945 C 0.0 **** -0.24
19742 H 273.02613143589963 90.04595528112736 281.5521543429792 H 0.0 **** 0.06
19743 H 273.9103366345382 88.7962788177233 280.6457525801722 H 0.0 **** 0.06
19744 H 272.5325109571171 89.63498199701351 279.89282253809955 H 0.0 **** 0.06
19745 H 272.2543212874 88.47859677144078 281.21679685087054 H 0.0 **** 0.06
19746 C 195.32891382723045 184.05456068060505 32.051250531089636 C 0.0 **** -0.24
19747 H 195.5071557730971 185.07884091965155 31.724940636352585 H 0.0 **** 0.06
19748 H 196.11449395978957 183.40676414855125 31.662748463446178 H 0.0 **** 0.06
19749 H 194.36170482906033 183.71755268002556 31.677446151133154 H 0.0 **** 0.06
19750 H 195.33029941127597 184.0155585981296 33.1407445740025 H 0.0 **** 0.06
19751 C 142.97069256964676 167.09924714645348 68.61220417236561 C 0.0 **** -0.24
19752 H 142.21570830984348 166.3723382672319 68.91151103523154 H 0.0 **** 0.06
19753 H 142.5609278635945 168.1049586245108 68.70103915815437 H 0.0 **** 0.06
19754 H 143.26253299328985 166.91494665103932 67.57832369368029 H 0.0 **** 0.06
19755 H 143.84291670604995 167.00278702302103 69.25924578871334 H 0.0 **** 0.06
19756 C 30.92259811703417 244.6608302204266 64.97057521170157 C 0.0 **** -0.24
19757 H 30.77598552275154 243.6594053310036 65.37419915076717 H 0.0 **** 0.06
19758 H 31.986883071832807 244.89782616600934 64.96549482998986 H 0.0 **** 0.06
19759 H 30.391505098536356 245.3833420501777 65.5907753522578 H 0.0 **** 0.06
19760 H 30.535753494070207 244.70246565682402 63.95319176843819 H 0.0 **** 0.06
19761 C 294.19315878048377 305.0122539439983 262.82775764492504 C 0.0 **** -0.24
19762 H 293.8171737195429 306.0342398858885 262.78772871280046 H 0.0 **** 0.06
19763 H 294.9316498739789 304.86585702027116 262.0389673055473 H 0.0 **** 0.06
19764 H 293.3673172441404 304.3153126668986 262.6866266381593 H 0.0 **** 0.06
19765 H 294.6578350747618 304.8340446866546 263.7978080326249 H 0.0 **** 0.06
19766 C 33.020444290148504 298.77174226492895 10.068402389244824 C 0.0 **** -0.24
19767 H 32.56579006036961 297.78868373392606 10.191157455422598 H 0.0 **** 0.06
19768 H 33.55793324841795 299.0405056283923 10.978808470363177 H 0.0 **** 0.06
19769 H 32.24236541448931 299.5101268031772 9.874297037080197 H 0.0 **** 0.06
19770 H 33.71668751946393 298.74769222723705 9.229329497895591 H 0.0 **** 0.06
19771 C 257.337817271651 186.05008461537636 63.571854040052386 C 0.0 **** -0.24
19772 H 257.4573756046979 185.9059323164858 62.497695172278384 H 0.0 **** 0.06
19773 H 256.4811144598448 186.69812416323236 63.75788465151217 H 0.0 **** 0.06
19774 H 258.2381640766483 186.51171363460855 63.977711934916954 H 0.0 **** 0.06
19775 H 257.17596420764414 185.08443779909527 64.05126739368623 H 0.0 **** 0.06
19776 C 147.94136351878862 129.16368799158946 248.392249453353 C 0.0 **** -0.24
19777 H 148.5599208880546 129.8562691722483 248.963272605403 H 0.0 **** 0.06
19778 H 148.29112369077976 128.1440373099936 248.55706651685952 H 0.0 **** 0.06
19779 H 148.01049213795304 129.4045844314969 247.33154615445733 H 0.0 **** 0.06
19780 H 146.90512482315373 129.24969445140792 248.7163954022339 H 0.0 **** 0.06
19781 C 29.0788957474943 128.7441456023779 118.46580125051699 C 0.0 **** -0.24
19782 H 28.73178522893957 127.99642844739083 119.17929525638542 H 0.0 **** 0.06
19783 H 28.302230411215533 128.92471774819774 117.72297286973318 H 0.0 **** 0.06
19784 H 29.97895789485017 128.38005588606683 117.9698000791854 H 0.0 **** 0.06
19785 H 29.303343881011756 129.6717195861949 118.99089255933191 H 0.0 **** 0.06
19786 C 7.503860889690998 104.83608402670848 135.5076591915379 C 0.0 **** -0.24
19787 H 7.907349747682076 104.75943157534797 134.49750351166432 H 0.0 **** 0.06
19788 H 8.28991275934493 105.16060996320707 136.18907222492106 H 0.0 **** 0.06
19789 H 7.126852936383045 103.86307579097627 135.82193029143002 H 0.0 **** 0.06
19790 H 6.689854381971031 105.56147666422942 135.5181606392329 H 0.0 **** 0.06
19791 C 281.1709632559736 281.1971787193202 304.6266866726341 C 0.0 **** -0.24
19792 H 281.7353056377118 280.60490178314603 305.34698664973337 H 0.0 **** 0.06
19793 H 281.66071101177937 282.16079386370154 304.4853383779081 H 0.0 **** 0.06
19794 H 280.15943309938586 281.35435361211995 305.00034713709715 H 0.0 **** 0.06
19795 H 281.12888964420625 280.6668852842047 303.6756850792714 H 0.0 **** 0.06
19796 C 251.04974644303462 215.08791653127201 150.08461314392468 C 0.0 **** -0.24
19797 H 250.98235498160494 215.65242780176027 151.0142591859481 H 0.0 **** 0.06
19798 H 250.05305948980111 214.76809996238174 149.7811665623663 H 0.0 **** 0.06
19799 H 251.68127008273825 214.21260839047727 150.23697095150743 H 0.0 **** 0.06
19800 H 251.48247843909954 215.71704636881972 149.30693196510504 H 0.0 **** 0.06
19801 C 160.79372428474574 144.0211737971209 285.11016825290903 C 0.0 **** -0.24
19802 H 160.69716339259725 144.7915443413396 284.34376980698164 H 0.0 **** 0.06
19803 H 160.83228588336033 144.49009606846093 286.09344809964585 H 0.0 **** 0.06
19804 H 161.7087017704477 143.45455739811297 284.94085965426257 H 0.0 **** 0.06
19805 H 159.93610202902613 143.35029186950612 285.0593759702539 H 0.0 **** 0.06
19806 C 263.4416623258282 173.59775911514635 215.77133652092687 C 0.0 **** -0.24
19807 H 263.4708406865399 172.51009264437954 215.83797451694716 H 0.0 **** 0.06
19808 H 262.409751947488 173.9380822560351 215.8613114270195 H 0.0 **** 0.06
19809 H 263.84617791800895 173.9134989511631 214.81022943176185 H 0.0 **** 0.06
19810 H 264.0370802477279 174.02738151584634 216.5763243696178 H 0.0 **** 0.06
19811 C 51.81608125513122 78.54411089917241 102.94590748103445 C 0.0 **** -0.24
19812 H 52.36081984484295 77.89635197468073 102.25872293770092 H 0.0 **** 0.06
19813 H 52.00785366446581 78.22850025451027 103.97170649468308 H 0.0 **** 0.06
19814 H 50.748831772317885 78.4781332867025 102.73860857094155 H 0.0 **** 0.06
19815 H 52.148764065209406 79.57348675605121 102.81412416987715 H 0.0 **** 0.06
19816 C 19.616500315370843 1.7115713621390825 67.19109416585121 C 0.0 **** -0.24
19817 H 20.04370215888983 2.6468669979980035 66.83041840417036 H 0.0 **** 0.06
19818 H 18.5923624590976 1.6166373057569388 66.82838831782871 H 0.0 **** 0.06
19819 H 19.617446998247743 1.7096015557197006 68.28090083297539 H 0.0 **** 0.06
19820 H 20.211060307272277 0.875121465525126 66.82510054306769 H 0.0 **** 0.06
19821 C 260.15230397664226 16.702118159988572 57.47884324557651 C 0.0 **** -0.24
19822 H 259.57561679208175 17.625667790324485 57.51533044527491 H 0.0 **** 0.06
19823 H 259.98219444253624 16.13092994829003 58.39200978433314 H 0.0 **** 0.06
19824 H 261.2133033754909 16.939197713026317 57.39106558326853 H 0.0 **** 0.06
19825 H 259.8390899947635 16.111977213089915 56.61769690866868 H 0.0 **** 0.06
19826 C 173.29939413475205 227.24648320643115 262.2082690046243 C 0.0 **** -0.24
19827 H 174.02592886819195 227.74003024952412 262.854214784032 H 0.0 **** 0.06
19828 H 173.15631202278342 226.2185547257797 262.5414879987261 H 0.0 **** 0.06
19829 H 173.6654856675379 227.24882877012675 261.18205029809974 H 0.0 **** 0.06
19830 H 172.3494321646835 227.77956196476026 262.2561819085027 H 0.0 **** 0.06
19831 C 120.81913135384221 75.4067064462684 201.96799260946818 C 0.0 **** -0.24
19832 H 120.46777160258438 76.26349467551148 201.39303121472216 H 0.0 **** 0.06
19833 H 120.65815440665779 75.5916030027883 203.0295226517174 H 0.0 **** 0.06
19834 H 121.88281554513969 75.25610558641961 201.78118341218402 H 0.0 **** 0.06
19835 H 120.26811842625727 74.51689871115784 201.66553882377661 H 0.0 **** 0.06
19836 C 264.22579012471397 289.3272274879172 155.0682693695622 C 0.0 **** -0.24
19837 H 263.6478258908413 289.1363428177405 154.16407042199336 H 0.0 **** 0.06
19838 H 264.3962114447502 288.3878333902658 155.59500332209194 H 0.0 **** 0.06
19839 H 263.67411515673905 290.0107738131907 155.71395544081304 H 0.0 **** 0.06
19840 H 265.1830887415759 289.7735157097835 154.8003934136858 H 0.0 **** 0.06
19841 C 132.04371134417133 172.2408854988372 250.0376349070512 C 0.0 **** -0.24
19842 H 132.29491158294542 172.39144216946494 248.98727664291056 H 0.0 **** 0.06
19843 H 132.87648507627088 171.752469630829 250.543765524106 H 0.0 **** 0.06
19844 H 131.15456453551894 171.61579382781292 250.1119430475962 H 0.0 **** 0.06
19845 H 131.85014358655403 173.20620627847057 250.50560570367438 H 0.0 **** 0.06
19846 C 101.15199587745195 44.04506483843383 14.101415605060296 C 0.0 **** -0.24
19847 H 101.64279732866035 44.57465762277826 14.917737702369308 H 0.0 **** 0.06
19848 H 101.16809799326091 42.97418175388725 14.302541158715869 H 0.0 **** 0.06
19849 H 101.67817910170723 44.24823453072278 13.16903551208145 H 0.0 **** 0.06
19850 H 100.1195097886091 44.384928169127136 14.01761378654895 H 0.0 **** 0.06
19851 C 123.49258325249363 24.287059901684472 36.56987103273195 C 0.0 **** -0.24
19852 H 123.96941227656922 24.11667586752219 35.60516708441136 H 0.0 **** 0.06
19853 H 123.99360243742709 25.108589980211832 37.082820796947175 H 0.0 **** 0.06
19854 H 123.56389759838063 23.38296924923941 37.17507654248982 H 0.0 **** 0.06
19855 H 122.44342069759759 24.540004509764458 36.416419707079484 H 0.0 **** 0.06
19856 C 250.85070458579656 136.42082804603376 287.0774424595818 C 0.0 **** -0.24
19857 H 251.08129432095748 136.83858423447492 288.0574973006162 H 0.0 **** 0.06
19858 H 251.205791950167 137.09795645158147 286.3004299519164 H 0.0 **** 0.06
19859 H 249.77253183323728 136.2913953856395 286.98319782072434 H 0.0 **** 0.06
19860 H 251.34293199507582 135.4536341046469 286.9700208016459 H 0.0 **** 0.06
19861 C 69.17808299300862 168.14754361171072 193.3543826834093 C 0.0 **** -0.24
19862 H 68.59012815007486 168.91765331260825 192.85475131680317 H 0.0 **** 0.06
19863 H 68.576170423555 167.24479651068197 193.46149142747527 H 0.0 **** 0.06
19864 H 69.47931797594774 168.50349201797837 194.33886557331795 H 0.0 **** 0.06
19865 H 70.06479621358255 167.9252090274694 192.7603335699224 H 0.0 **** 0.06
19866 C 302.56912997865294 17.68723083564116 22.666876933375107 C 0.0 **** -0.24
19867 H 302.4533778101019 18.031144886213426 21.639058412835737 H 0.0 **** 0.06
19868 H 302.0495388778427 18.370813487401747 23.338630011490892 H 0.0 **** 0.06
19869 H 303.6288066395887 17.66008441030496 22.922808175174055 H 0.0 **** 0.06
19870 H 302.1456296440176 16.68767737383112 22.7648498545841 H 0.0 **** 0.06
19871 C 46.67107980557472 17.78756148700819 64.14977964950776 C 0.0 **** -0.24
19872 H 46.68063092341282 17.495659098307513 63.10029591199222 H 0.0 **** 0.06
19873 H 47.116869935426735 16.9944643769319 64.75171610202443 H 0.0 **** 0.06
19874 H 45.64234981684018 17.95399748034481 64.47146276451875 H 0.0 **** 0.06
19875 H 47.24520452965538 18.70569390109364 64.27677187012407 H 0.0 **** 0.06
19876 C 249.1121301520893 38.196842406788164 207.05078499744678 C 0.0 **** -0.24
19877 H 249.03544584447883 38.2992913832029 205.96791701006885 H 0.0 **** 0.06
19878 H 249.5180271793484 39.115169175096526 207.47454070272244 H 0.0 **** 0.06
19879 H 249.7712648157109 37.36291656126423 207.290535964137 H 0.0 **** 0.06
19880 H 248.1220582042223 38.00925936229413 207.4678035761142 H 0.0 **** 0.06
19881 C 181.9603830446983 68.57652714946062 144.89663423747285 C 0.0 **** -0.24
19882 H 181.2602519009817 69.0457282175594 145.58773559658567 H 0.0 **** 0.06
19883 H 182.07373816028246 67.5226689919013 145.15220605619302 H 0.0 **** 0.06
19884 H 182.92766465239043 69.07386955599677 144.96655684459196 H 0.0 **** 0.06
19885 H 181.57930371084387 68.66446917501523 143.87890829490354 H 0.0 **** 0.06
19886 C 287.70148690243155 280.2249242668845 133.39793779341022 C 0.0 **** -0.24
19887 H 287.79122043008886 281.3113409006672 133.38504812029487 H 0.0 **** 0.06
19888 H 287.07284251947897 279.9031395838392 132.56720064430274 H 0.0 **** 0.06
19889 H 287.25006838489054 279.90998445952147 134.3388892219331 H 0.0 **** 0.06
19890 H 288.69066463557766 279.7773707397389 133.30092953133462 H 0.0 **** 0.06
19891 C 290.51485081605944 285.2682753352312 27.85955439731174 C 0.0 **** -0.24
19892 H 291.33785369450703 284.8172396000667 28.41300211206905 H 0.0 **** 0.06
19893 H 289.78664983679306 285.6765532080087 28.560870207435357 H 0.0 **** 0.06
19894 H 290.0367013100441 284.5112012530436 27.23784286060976 H 0.0 **** 0.06
19895 H 290.89823018236956 286.06898217277194 27.22698568766137 H 0.0 **** 0.06
19896 C 209.14805035041636 238.84795598299073 231.57897194675076 C 0.0 **** -0.24
19897 H 208.67193913522541 239.61213306361458 230.96399076530892 H 0.0 **** 0.06
19898 H 210.07024290528915 238.51967750170013 231.09917461267 H 0.0 **** 0.06
19899 H 208.47349610367007 237.9991548612968 231.69111727109777 H 0.0 **** 0.06
19900 H 209.37582264558333 239.26285289895424 232.56087605655875 H 0.0 **** 0.06
19901 C 81.26890099215302 124.78499179052963 27.622401525225342 C 0.0 **** -0.24
19902 H 81.49660883884528 123.97888219480438 26.925764746796148 H 0.0 **** 0.06
19903 H 81.80654174420945 124.62083633471573 28.556452251677285 H 0.0 **** 0.06
19904 H 80.1969908118298 124.80512347613845 27.818124872588214 H 0.0 **** 0.06
19905 H 81.57673643146214 125.73714167855269 27.188706599012733 H 0.0 **** 0.06
19906 C 16.471947427327677 172.39931255596088 85.31022529443436 C 0.0 **** -0.24
19907 H 15.445913220501481 172.0789375105872 85.49265607366107 H 0.0 **** 0.06
19908 H 17.00070806629502 172.4807311183651 86.26006609989625 H 0.0 **** 0.06
19909 H 16.466519742165815 173.3685908135173 84.81219964533787 H 0.0 **** 0.06
19910 H 16.97355257381902 171.66715401654557 84.67663117780143 H 0.0 **** 0.06
19911 C 300.10119721228307 296.4757967607469 157.41713684645975 C 0.0 **** -0.24
19912 H 299.32177445118015 296.4755180474703 156.6549482653225 H 0.0 **** 0.06
19913 H 301.0401714921808 296.80979928961005 156.97481686518552 H 0.0 **** 0.06
19914 H 300.22281951899663 295.46737087937726 157.8115282794784 H 0.0 **** 0.06
19915 H 299.81909418232874 297.1502847655824 158.22499769926816 H 0.0 **** 0.06
19916 C 22.628471826867553 100.58888795184299 188.77585117699869 C 0.0 **** -0.24
19917 H 23.513751931115735 100.75120084152948 188.1611203316969 H 0.0 **** 0.06
19918 H 22.84603437363438 100.86901724433216 189.8058941187175 H 0.0 **** 0.06
19919 H 22.34748494666451 99.53608892364593 188.73595214123458 H 0.0 **** 0.06
19920 H 21.80703501238014 101.19789215162984 188.39743897091824 H 0.0 **** 0.06
19921 C 235.4545814469085 72.12971590751906 85.46987338207691 C 0.0 **** -0.24
19922 H 235.5533420872021 71.58215092232459 86.40646842101071 H 0.0 **** 0.06
19923 H 235.48616070858873 71.42949600359961 84.63485350901789 H 0.0 **** 0.06
19924 H 236.27393418719933 72.84232166792265 85.37822478879727 H 0.0 **** 0.06
19925 H 234.5048888046437 72.66489503622924 85.45994680948192 H 0.0 **** 0.06
19926 C 222.2733589805398 253.77213435300376 159.39792471328605 C 0.0 **** -0.24
19927 H 222.95841194768602 254.5731141759415 159.674960998272 H 0.0 **** 0.06
19928 H 221.2519972813636 254.15067927323614 159.40221021470694 H 0.0 **** 0.06
19929 H 222.36155211399313 252.95471557078488 160.11430091356738 H 0.0 **** 0.06
19930 H 222.52362598439038 253.4094524556005 158.40124642241904 H 0.0 **** 0.06
19931 C 296.3813575627172 268.0111322068875 19.123814317062283 C 0.0 **** -0.24
19932 H 296.6874244526142 267.11053461309007 19.655342659836208 H 0.0 **** 0.06
19933 H 297.255207633822 268.63338717936387 18.9295254741628 H 0.0 **** 0.06
19934 H 295.66690909958186 268.56688463984426 19.73192777787085 H 0.0 **** 0.06
19935 H 295.91535654426195 267.73451016709623 18.178151773035665 H 0.0 **** 0.06
19936 C 210.90733292798296 172.95383989956747 185.49517984860438 C 0.0 **** -0.24
19937 H 210.5486504980572 172.23479069152245 184.75924065467518 H 0.0 **** 0.06
19938 H 210.9066397025269 172.49210877930182 186.4837612831388 H 0.0 **** 0.06
19939 H 210.25242386594303 173.8257037282936 185.50027287840896 H 0.0 **** 0.06
19940 H 211.92111794494951 173.26186248132302 185.2388414403493 H 0.0 **** 0.06
19941 C 7.545782484280906 175.96151126981312 256.82160854000676 C 0.0 **** -0.24
19942 H 7.191314289389467 174.93111027317798 256.8499181711144 H 0.0 **** 0.06
19943 H 7.309639686200001 176.4001035111142 255.85119636856155 H 0.0 **** 0.06
19944 H 8.624634202230808 175.9784850426505 256.9756773913386 H 0.0 **** 0.06
19945 H 7.057037809647397 176.53511113446456 257.60917262528733 H 0.0 **** 0.06
19946 C 231.25192028727514 8.877344730613132 299.4637737190088 C 0.0 **** -0.24
19947 H 230.16669294786627 8.840397716503304 299.36995000710084 H 0.0 **** 0.06
19948 H 231.70348022862504 8.807384419950608 298.47366588205466 H 0.0 **** 0.06
19949 H 231.59188935795393 8.045154337448764 300.07933242914913 H 0.0 **** 0.06
19950 H 231.5439818318118 9.818253323392184 299.930402506483 H 0.0 **** 0.06
19951 C 82.65781845443516 51.29515288613743 252.98334887956653 C 0.0 **** -0.24
19952 H 82.83764490979254 51.04873988168126 251.93696585860664 H 0.0 **** 0.06
19953 H 82.8803416455311 52.34880470104977 253.1514429949633 H 0.0 **** 0.06
19954 H 83.29924759428343 50.68214342049521 253.61616038510854 H 0.0 **** 0.06
19955 H 81.61378058662908 51.100537729481374 253.22794082462016 H 0.0 **** 0.06
19956 C 2.16578732389587 6.764311188359059 46.68758863322739 C 0.0 **** -0.24
19957 H 1.993339673829155 5.9939163111925495 45.9351194330205 H 0.0 **** 0.06
19958 H 1.2137690897304196 7.2143174902586935 46.97080227042508 H 0.0 **** 0.06
19959 H 2.8233998139517666 7.531713218260009 46.27777978415824 H 0.0 **** 0.06
19960 H 2.632332775971804 6.317025100241494 47.564455122385965 H 0.0 **** 0.06
19961 C 243.5033287513861 96.58851927979973 85.583550008884 C 0.0 **** -0.24
19962 H 242.84444103115362 95.81807531318535 85.18370202015322 H 0.0 **** 0.06
19963 H 242.90552604352501 97.37948004381639 86.03521840184285 H 0.0 **** 0.06
19964 H 244.10692272068667 97.00369274099535 84.77697907991893 H 0.0 **** 0.06
19965 H 244.15671101300646 96.1504025366836 86.33812584348172 H 0.0 **** 0.06
19966 C 46.553057224589566 229.09552544604094 2.3892640732827886 C 0.0 **** -0.24
19967 H 46.48157927752527 229.75669273996243 3.2540392298474785 H 0.0 **** 0.06
19968 H 47.15324837170385 228.22351085694007 2.648214824246452 H 0.0 **** 0.06
19969 H 47.02193912002531 229.6289876770986 1.5622585307890517 H 0.0 **** 0.06
19970 H 45.55372449661354 228.77534095167715 2.094796184755353 H 0.0 **** 0.06
19971 C 280.56439151149885 149.52341645242973 290.32140606632464 C 0.0 **** -0.24
19972 H 279.6307995025643 149.952020584906 289.9572250569179 H 0.0 **** 0.06
19973 H 280.99160690375595 150.1769280720494 291.08161782558966 H 0.0 **** 0.06
19974 H 281.2652423591061 149.4218691400804 289.4923387674285 H 0.0 **** 0.06
19975 H 280.3687523251941 148.54250084387007 290.7537198693523 H 0.0 **** 0.06
19976 C 212.01335990242 51.5362923129633 116.80782567787062 C 0.0 **** -0.24
19977 H 212.5681145516155 51.24322920661555 117.6987194096694 H 0.0 **** 0.06
19978 H 211.66566825772725 52.56393371157438 116.91861841682993 H 0.0 **** 0.06
19979 H 211.1566695321416 50.87508178400017 116.67912993628966 H 0.0 **** 0.06
19980 H 212.66207769509333 51.4638258895217 115.93543517551458 H 0.0 **** 0.06
19981 C 19.361523334041166 199.44313013710598 9.617333787322764 C 0.0 **** -0.24
19982 H 18.340586943359654 199.1138745275298 9.423648526448346 H 0.0 **** 0.06
19983 H 19.401933192445128 200.53199466016196 9.592505523339454 H 0.0 **** 0.06
19984 H 20.02552412762347 199.03663890651512 8.853892774904523 H 0.0 **** 0.06
19985 H 19.677305067241804 199.08897818451902 10.598674524124817 H 0.0 **** 0.06
19986 C 99.82730232998651 72.2710708015749 298.1709972966467 C 0.0 **** -0.24
19987 H 99.74973066136113 73.05451742970334 298.9245657176283 H 0.0 **** 0.06
19988 H 98.99609432525133 71.57469506034337 298.28494216534574 H 0.0 **** 0.06
19989 H 100.76922818080925 71.73828833398628 298.2968101670348 H 0.0 **** 0.06
19990 H 99.7928474287558 72.7188489060762 297.1775417207397 H 0.0 **** 0.06
19991 C 215.42900135812667 50.087546957851345 303.0410777016538 C 0.0 **** -0.24
19992 H 215.02695126832424 51.10040372679319 303.01231588745367 H 0.0 **** 0.06
19993 H 216.49501978699232 50.12752200260084 303.26769645787704 H 0.0 **** 0.06
19994 H 215.28074845343826 49.609739554564186 302.073350722813 H 0.0 **** 0.06
19995 H 214.91487642951995 49.51451443847918 303.8130696977197 H 0.0 **** 0.06
19996 C 295.9385115500736 9.894084992614054 237.74967594539928 C 0.0 **** -0.24
19997 H 295.46383815545937 10.51182505817387 236.98745568270252 H 0.0 **** 0.06
19998 H 296.0391170738959 10.468554899258564 238.67095831712993 H 0.0 **** 0.06
19999 H 296.92516322736947 9.585753912351521 237.40351880796126 H 0.0 **** 0.06
20000 H 295.326369222004 9.012476281391628 237.93596387820102 H 0.0 **** 0.06
20001 C 3.7923513000346816 160.57573706492218 264.5196508587921 C 0.0 **** -0.24
20002 H 4.3019366124793805 161.53951607952496 264.51527223090494 H 0.0 **** 0.06
20003 H 3.0845452155996895 160.5359995743592 263.6924593315013 H 0.0 **** 0.06
20004 H 3.2575547849745163 160.45293373428444 265.46173969841004 H 0.0 **** 0.06
20005 H 4.525546720069158 159.77662639658575 264.4112397668795 H 0.0 **** 0.06
20006 C 45.63255858214572 276.8180222588534 150.95994067423612 C 0.0 **** -0.24
20007 H 46.117496539897445 275.9194667441395 151.3425220613954 H 0.0 **** 0.06
20008 H 44.61141407593988 276.86942959667215 151.33871836151127 H 0.0 **** 0.06
20009 H 45.61567708861443 276.7847584839173 149.86983889291093 H 0.0 **** 0.06
20010 H 46.18676317954342 277.6977108031334 151.2882038036749 H 0.0 **** 0.06
20011 C 246.4026913916227 122.15697212682895 159.22615086834884 C 0.0 **** -0.24
20012 H 247.27976730359222 121.82344024553933 158.67223690819543 H 0.0 **** 0.06
20013 H 246.7077447806726 122.50959310617068 160.2110103615246 H 0.0 **** 0.06
20014 H 245.70521592303373 121.3268159480879 159.33598272947472 H 0.0 **** 0.06
20015 H 245.918325407736 122.96852062224912 158.68407524768782 H 0.0 **** 0.06
20016 C 245.98145623707038 200.13151775668325 86.76721462510321 C 0.0 **** -0.24
20017 H 246.39100171323275 201.1398111816069 86.84169435646038 H 0.0 **** 0.06
20018 H 246.0607870745886 199.63520582717388 87.73473539467182 H 0.0 **** 0.06
20019 H 246.54003925172412 199.56706436415936 86.0209809280752 H 0.0 **** 0.06
20020 H 244.93365747799595 200.18708921273708 86.47092097573145 H 0.0 **** 0.06
20021 C 96.09333208415984 267.4202811758052 282.32721601002845 C 0.0 **** -0.24
20022 H 95.8950950341067 268.1157445322385 283.14243876444755 H 0.0 **** 0.06
20023 H 97.13359647495088 267.0975629099687 282.36993916743404 H 0.0 **** 0.06
20024 H 95.904002790319 267.9143838810238 281.37465772743144 H 0.0 **** 0.06
20025 H 95.43882019208783 266.5529452514193 282.422515195326 H 0.0 **** 0.06
20026 C 282.3187635701307 23.02138122595079 210.06256360445622 C 0.0 **** -0.24
20027 H 282.9156750646141 22.370377677507292 209.42356955201944 H 0.0 **** 0.06
20028 H 281.34142568376643 23.18082075547727 209.6072790326709 H 0.0 **** 0.06
20029 H 282.8270726115951 23.97857955588688 210.17980534872788 H 0.0 **** 0.06
20030 H 282.1937553189517 22.554912988603576 211.03980649707262 H 0.0 **** 0.06
20031 C 192.70577124262303 144.36195016976168 160.78187793019117 C 0.0 **** -0.24
20032 H 191.9216474258675 144.39449196702404 161.53830189946797 H 0.0 **** 0.06
20033 H 193.62131689336832 144.79089765210165 161.18950468346395 H 0.0 **** 0.06
20034 H 192.39250387073668 144.93404950286464 159.90872430367682 H 0.0 **** 0.06
20035 H 192.88712801779502 143.32691666675635 160.49289745358539 H 0.0 **** 0.06
20036 C 105.95954940964378 36.03163287949414 169.9649501817816 C 0.0 **** -0.24
20037 H 106.74636666782885 36.28287762566964 169.25507059986614 H 0.0 **** 0.06
20038 H 105.14979243558517 36.75706317968118 169.88175236952213 H 0.0 **** 0.06
20039 H 106.36300450260956 36.05208547851885 170.97807951012618 H 0.0 **** 0.06
20040 H 105.57858601656966 35.03440112996782 169.7462355781671 H 0.0 **** 0.06
20041 C 311.37883257913444 231.6804158557436 178.72442100156098 C 0.0 **** -0.24
20042 H 310.67122998849254 231.36699443203747 179.4927047640715 H 0.0 **** 0.06
20043 H 310.832859100162 232.0801116919243 177.87011453029146 H 0.0 **** 0.06
20044 H 311.9732039492539 230.8237404610976 178.40731488235417 H 0.0 **** 0.06
20045 H 312.03678791032144 232.44892700964996 179.12848130951988 H 0.0 **** 0.06
20046 C 158.71656946330825 32.4715195275424 226.18261907165294 C 0.0 **** -0.24
20047 H 159.45863682392655 32.10819989356227 226.89513450018856 H 0.0 **** 0.06
20048 H 158.36445360640312 31.640923427449536 225.5711095537443 H 0.0 **** 0.06
20049 H 159.16907077189052 33.22875056619148 225.54310123340122 H 0.0 **** 0.06
20050 H 157.87701112590315 32.90678215982692 226.7237000123347 H 0.0 **** 0.06
20051 C 179.16232592135515 242.63273657638948 118.27467011443468 C 0.0 **** -0.24
20052 H 178.69481072686142 243.1921981477746 119.08470754648184 H 0.0 **** 0.06
20053 H 179.19155076884095 241.5737956628625 118.5338754494883 H 0.0 **** 0.06
20054 H 180.17797735305152 242.99706943601967 118.1207802641384 H 0.0 **** 0.06
20055 H 178.58514696661734 242.76733952208605 117.36061002608659 H 0.0 **** 0.06
20056 C 74.25852461769526 295.8455783275559 28.78612610441462 C 0.0 **** -0.24
20057 H 74.65032999556962 296.54005824170633 29.52999474160012 H 0.0 **** 0.06
20058 H 73.18338968104823 295.9943745172422 28.68192478230904 H 0.0 **** 0.06
20059 H 74.45381976570155 294.82253965548614 29.106341698790175 H 0.0 **** 0.06
20060 H 74.74500852495888 296.0260711621311 27.827679395666763 H 0.0 **** 0.06
20061 C 30.140633820265464 156.21935266332997 183.28535090444882 C 0.0 **** -0.24
20062 H 31.01869421319674 156.09895009691945 182.6510264470997 H 0.0 **** 0.06
20063 H 30.31127601869514 157.03156210137234 183.9917257463755 H 0.0 **** 0.06
20064 H 29.95938811305041 155.29407582842782 183.83341397382605 H 0.0 **** 0.06
20065 H 29.27394082467282 156.45112636942235 182.66647809886473 H 0.0 **** 0.06
20066 C 170.94660598711755 220.92887867504697 199.85177221657477 C 0.0 **** -0.24
20067 H 171.09403413312333 219.92865854641474 199.4455555479546 H 0.0 **** 0.06
20068 H 170.99396445479601 221.65950709550688 199.04398286354598 H 0.0 **** 0.06
20069 H 171.7267451186441 221.14318040569117 200.58277704370192 H 0.0 **** 0.06
20070 H 169.97089981752532 220.98498771540713 200.33562198806322 H 0.0 **** 0.06
20071 C 213.21693241041012 189.85432861027988 154.40084091949876 C 0.0 **** -0.24
20072 H 213.21863850025693 190.0645609301087 155.4704524432072 H 0.0 **** 0.06
20073 H 213.0195370061658 188.7942004628875 154.23982937209314 H 0.0 **** 0.06
20074 H 214.18810923479722 190.1116981285582 153.9789287796366 H 0.0 **** 0.06
20075 H 212.44125182684672 190.44689513416824 153.91555348099695 H 0.0 **** 0.06
20076 C 278.55522271943676 128.63696387668762 10.820817635121102 C 0.0 **** -0.24
20077 H 278.70227527068107 129.5167283265409 11.447092661497535 H 0.0 **** 0.06
20078 H 277.7904835044127 128.84789977923506 10.072796691996984 H 0.0 **** 0.06
20079 H 278.237528280494 127.79934140369389 11.440190041198633 H 0.0 **** 0.06
20080 H 279.4917834569805 128.38554674646724 10.322268976423786 H 0.0 **** 0.06
20081 C 160.8856472734691 10.274881141703048 161.43636111980277 C 0.0 **** -0.24
20082 H 160.9302022063623 9.220227781613573 161.70718300922601 H 0.0 **** 0.06
20083 H 161.2176785151301 10.88072048178914 162.27970167991987 H 0.0 **** 0.06
20084 H 159.86073757150876 10.541935001038013 161.17883114314117 H 0.0 **** 0.06
20085 H 161.53545832489255 10.457505192095894 160.57993108296284 H 0.0 **** 0.06
20086 C 134.13216727380558 7.67448952161908 95.89113688715034 C 0.0 **** -0.24
20087 H 134.7736449971625 8.554824456443129 95.86143706244843 H 0.0 **** 0.06
20088 H 133.48848705913346 7.663925977872779 95.01152927979484 H 0.0 **** 0.06
20089 H 133.51743026827248 7.7031156664471325 96.79101705118103 H 0.0 **** 0.06
20090 H 134.7492149282216 6.775115208958127 95.90074912440178 H 0.0 **** 0.06
20091 C 199.95175547110222 271.79577249752396 193.5319781932351 C 0.0 **** -0.24
20092 H 199.4871215384003 272.43398678774963 192.78086090877218 H 0.0 **** 0.06
20093 H 199.93435954891999 272.30088801512636 194.49771213466897 H 0.0 **** 0.06
20094 H 200.98312823935618 271.5907194597908 193.24654902390068 H 0.0 **** 0.06
20095 H 199.4002981685203 270.85804659194446 193.60231538564352 H 0.0 **** 0.06
20096 C 193.4092095564917 72.87031818042388 284.78108616745135 C 0.0 **** -0.24
20097 H 192.91865502373884 73.18506320782143 285.7021780022525 H 0.0 **** 0.06
20098 H 194.09999919501604 72.05563481293251 284.9979502613033 H 0.0 **** 0.06
20099 H 193.95744114194923 73.71059594955707 284.3562017772158 H 0.0 **** 0.06
20100 H 192.65721600999638 72.52958016032593 284.06864903871104 H 0.0 **** 0.06
20101 C 124.55217582386942 144.337521979557 143.8022280144277 C 0.0 **** -0.24
20102 H 124.94035022212896 143.9669619783515 144.75135196590165 H 0.0 **** 0.06
20103 H 124.93970498667366 145.34006858099357 143.61818776182034 H 0.0 **** 0.06
20104 H 123.46362910334867 144.36962388104084 143.84315298260955 H 0.0 **** 0.06
20105 H 124.86675383748721 143.67244707756288 142.99763967218283 H 0.0 **** 0.06
20106 C 203.55101185269376 44.96731408782017 125.46604473413353 C 0.0 **** -0.24
20107 H 202.63235788616453 44.957419926227885 126.05231458977585 H 0.0 **** 0.06
20108 H 204.20010514561528 44.15559056702037 125.7954596330647 H 0.0 **** 0.06
20109 H 204.06098021606613 45.9197040648902 125.60640122339211 H 0.0 **** 0.06
20110 H 203.31086963140206 44.83599021455541 124.41127836149414 H 0.0 **** 0.06
20111 C 302.03966720744927 10.44890297005719 66.02840201314987 C 0.0 **** -0.24
20112 H 301.36543840610875 9.594218118615913 66.08729751440833 H 0.0 **** 0.06
20113 H 303.0423072216203 10.140738723844578 66.32760454791386 H 0.0 **** 0.06
20114 H 301.68698566091274 11.235163715000496 66.69648892468396 H 0.0 **** 0.06
20115 H 302.0634490650793 10.823413759326584 65.00529036745161 H 0.0 **** 0.06
20116 C 155.81137791031523 87.87103777204325 170.50344524188847 C 0.0 **** -0.24
20117 H 154.72564879376552 87.95116860364601 170.54179467377668 H 0.0 **** 0.06
20118 H 156.25721189220582 88.74892791194867 170.97049482223508 H 0.0 **** 0.06
20119 H 156.1345422193005 87.80737923254765 169.46445016527827 H 0.0 **** 0.06
20120 H 156.12841414933604 86.97452292541323 171.03756461928333 H 0.0 **** 0.06
20121 C 205.16001365442946 166.06964093506906 92.14168990956091 C 0.0 **** -0.24
20122 H 205.76597261305142 166.20326801308624 93.03814286258458 H 0.0 **** 0.06
20123 H 205.55058790862148 165.2334287942233 91.56097882687254 H 0.0 **** 0.06
20124 H 205.19499157167826 166.9779373228543 91.53994281302758 H 0.0 **** 0.06
20125 H 204.12869548719885 165.8623698102587 92.42842301162091 H 0.0 **** 0.06
20126 C 239.23633422229602 241.99327210765472 35.51224080174978 C 0.0 **** -0.24
20127 H 238.87446911034004 242.14281283360253 36.52993700695043 H 0.0 **** 0.06
20128 H 238.83698921259975 241.0578221868719 35.11911567748524 H 0.0 **** 0.06
20129 H 240.3251608229764 241.95142374285587 35.51678991282975 H 0.0 **** 0.06
20130 H 238.90651538477061 242.82101406873093 34.88538984281223 H 0.0 **** 0.06
20131 C 14.253374551773405 9.539665828488026 216.10254161182743 C 0.0 **** -0.24
20132 H 13.343234875347846 9.547092014491597 215.5017979256334 H 0.0 **** 0.06
20133 H 14.75247967810283 10.50473011474864 216.01913691720287 H 0.0 **** 0.06
20134 H 14.918101086443016 8.75346654739522 215.74465241913697 H 0.0 **** 0.06
20135 H 13.997410607798713 9.351361062488849 217.1454644886302 H 0.0 **** 0.06
20136 C 49.875018757950016 127.15823785428205 100.58042632693258 C 0.0 **** -0.24
20137 H 49.90103931225812 127.60343922608206 101.57542533339094 H 0.0 **** 0.06
20138 H 50.131619693577136 127.91337852412988 99.83738805140385 H 0.0 **** 0.06
20139 H 48.873715224493594 126.77615347604439 100.38071374984608 H 0.0 **** 0.06
20140 H 50.59305676644746 126.33930404180254 100.52994680514158 H 0.0 **** 0.06
20141 C 290.11511864290856 259.928975027537 95.45334209749504 C 0.0 **** -0.24
20142 H 290.31939783199573 258.88482782614426 95.21956019479799 H 0.0 **** 0.06
20143 H 289.0996424659078 260.02287142178 95.83981972525137 H 0.0 **** 0.06
20144 H 290.21692236114114 260.5297108004784 94.5495706198696 H 0.0 **** 0.06
20145 H 290.823335530352 260.27926021110574 96.20340641133205 H 0.0 **** 0.06
20146 C 202.6060454399621 161.12600043686626 181.53337124285895 C 0.0 **** -0.24
20147 H 201.74312896496974 160.53740140679764 181.84437717135762 H 0.0 **** 0.06
20148 H 203.15274536979757 160.58847438454075 180.75757984900525 H 0.0 **** 0.06
20149 H 203.2591730642892 161.2939793968908 182.38956732098552 H 0.0 **** 0.06
20150 H 202.2682025768712 162.08552275571913 181.1408480295408 H 0.0 **** 0.06
20151 C 238.8053587664644 52.27725204969363 233.5473286864058 C 0.0 **** -0.24
20152 H 237.76880883515315 52.0873411808231 233.8255110919534 H 0.0 **** 0.06
20153 H 238.8523718900979 52.55827460647305 232.49478156492026 H 0.0 **** 0.06
20154 H 239.39646071928746 51.37626702572118 233.71015011009973 H 0.0 **** 0.06
20155 H 239.20204767881307 53.08805316586995 234.15782750206176 H 0.0 **** 0.06
20156 C 261.0408435216095 149.41768885116602 38.6382197855836 C 0.0 **** -0.24
20157 H 261.8619719739921 149.09254818555087 39.27664985987184 H 0.0 **** 0.06
20158 H 260.2382450705844 149.81935325995101 39.25594769857875 H 0.0 **** 0.06
20159 H 260.66912525073747 148.56899494776894 38.06373520170396 H 0.0 **** 0.06
20160 H 261.3965885451337 150.19057343679117 37.9555703487234 H 0.0 **** 0.06
20161 C 71.62195392169332 132.83496426514787 103.48227668203049 C 0.0 **** -0.24
20162 H 70.94779100957578 133.64934962301336 103.7497467027253 H 0.0 **** 0.06
20163 H 72.53908813044151 132.91718191422464 104.06595420720217 H 0.0 **** 0.06
20164 H 71.85943387319747 132.89458472665447 102.42054035918932 H 0.0 **** 0.06
20165 H 71.13974459426629 131.880387064717 103.69491460610695 H 0.0 **** 0.06
20166 C 20.725756891128214 129.76883558486855 130.38338319300775 C 0.0 **** -0.24
20167 H 21.043010760540255 129.9924802998883 131.40260759418507 H 0.0 **** 0.06
20168 H 20.99855704028417 130.59602531933217 129.72842703444908 H 0.0 **** 0.06
20169 H 19.64432840196524 129.6288428942829 130.36304048815566 H 0.0 **** 0.06
20170 H 21.215981501685235 128.85702854697266 130.0422408374807 H 0.0 **** 0.06
20171 C 267.40982054137197 9.749385714010259 144.18331604584546 C 0.0 **** -0.24
20172 H 266.7328117129925 10.511118062513447 144.5721067772605 H 0.0 **** 0.06
20173 H 267.00025976834337 9.336926750637872 143.26093113206733 H 0.0 **** 0.06
20174 H 267.5227542651246 8.953955958595486 144.92003093552253 H 0.0 **** 0.06
20175 H 268.38270141536697 10.197831412368032 143.9806300493097 H 0.0 **** 0.06
20176 C 6.045488990606373 222.81999609048955 80.52941196505776 C 0.0 **** -0.24
20177 H 5.741515737082182 221.81354549418458 80.24476165244238 H 0.0 **** 0.06
20178 H 5.345161735602119 223.54325679010634 80.10980017644178 H 0.0 **** 0.06
20179 H 7.045952175573575 223.01897445379777 80.14629922347515 H 0.0 **** 0.06
20180 H 6.04870640111892 222.90474279781822 81.61563385268494 H 0.0 **** 0.06
20181 C 109.16361080712568 67.7959573247586 266.97118313929786 C 0.0 **** -0.24
20182 H 108.79292814147149 68.70670979113447 266.5010994710027 H 0.0 **** 0.06
20183 H 108.39552499842429 67.38782312391078 267.62813139795054 H 0.0 **** 0.06
20184 H 110.0556792537194 68.0258391246193 267.55335372611745 H 0.0 **** 0.06
20185 H 109.41034095525833 67.06553636044626 266.20132549388944 H 0.0 **** 0.06
20186 C 17.43044826072297 97.66314827415948 137.86344576135315 C 0.0 **** -0.24
20187 H 17.672574485535662 97.43418858590093 136.82648689313496 H 0.0 **** 0.06
20188 H 17.110834200084028 98.70326783793587 137.9403710719733 H 0.0 **** 0.06
20189 H 18.31103018282242 97.5061282504106 138.4854019778043 H 0.0 **** 0.06
20190 H 16.625695881479587 97.01007352584983 138.20186315699246 H 0.0 **** 0.06
20191 C 131.5312266439702 231.4173501292811 245.94731801900534 C 0.0 **** -0.24
20192 H 131.44537180985512 231.7818958106016 244.92366048652823 H 0.0 **** 0.06
20193 H 131.0578767669123 232.1266219458488 246.62588395662192 H 0.0 **** 0.06
20194 H 132.5848273174641 231.31292662059715 246.20822356869166 H 0.0 **** 0.06
20195 H 131.03886042200978 230.44898709925278 246.0306000153623 H 0.0 **** 0.06
20196 C 17.851709026022277 206.7104491679964 126.7474042874752 C 0.0 **** -0.24
20197 H 18.208491197135544 207.22870697303185 127.63646315603623 H 0.0 **** 0.06
20198 H 17.94152266863793 207.36830634289674 125.88240498035773 H 0.0 **** 0.06
20199 H 16.807336099919198 206.43024691287013 126.88452553696487 H 0.0 **** 0.06
20200 H 18.450142575606577 205.81338422079796 126.5847263153056 H 0.0 **** 0.06
20201 C 74.16696988587947 302.14582660899043 71.99147551794945 C 0.0 **** -0.24
20202 H 73.22126084980047 302.66559579877213 71.84389926553482 H 0.0 **** 0.06
20203 H 74.80685477645318 302.30240144072604 71.12209872599021 H 0.0 **** 0.06
20204 H 73.97947771579817 301.0788273809209 72.11745444373827 H 0.0 **** 0.06
20205 H 74.66142115662714 302.5354247132445 72.881678646896 H 0.0 **** 0.06
20206 C 233.22654513844046 132.82693138575883 192.89910725378343 C 0.0 **** -0.24
20207 H 232.42100622466717 132.35230863903803 192.340205071323 H 0.0 **** 0.06
20208 H 233.91573292299378 133.30892235820636 192.2043869803794 H 0.0 **** 0.06
20209 H 233.76102041586998 132.07335507056445 193.4775208298173 H 0.0 **** 0.06
20210 H 232.80960937101452 133.57381678419824 193.57395695026815 H 0.0 **** 0.06
20211 C 263.37755287428945 83.21414453539762 244.01419228515869 C 0.0 **** -0.24
20212 H 262.4497838056854 83.30386211746836 244.5790512584477 H 0.0 **** 0.06
20213 H 263.16755019297767 82.78013718716213 243.03624962387386 H 0.0 **** 0.06
20214 H 264.0713409475196 82.57027706349422 244.55562754658752 H 0.0 **** 0.06
20215 H 263.8220702498164 84.20159632374413 243.8863070921928 H 0.0 **** 0.06
20216 C 85.41515763021533 52.94503690890909 108.16979047247742 C 0.0 **** -0.24
20217 H 85.07810651968458 53.4685887719325 109.06433859570112 H 0.0 **** 0.06
20218 H 85.41857383199977 51.87051250818109 108.35858401434334 H 0.0 **** 0.06
20219 H 86.42224699719196 53.27330111193626 107.91521442492183 H 0.0 **** 0.06
20220 H 84.74012470244378 53.16648033449002 107.34365325529683 H 0.0 **** 0.06
20221 C 283.7926553955724 0.760705064349736 36.665410705765936 C 0.0 **** -0.24
20222 H 283.5315161728395 0.41842180800887263 35.66405521017563 H 0.0 **** 0.06
20223 H 284.8031698688342 0.43186704357390227 36.909216792896245 H 0.0 **** 0.06
20224 H 283.0910383747231 0.3418681929632612 37.38634383592367 H 0.0 **** 0.06
20225 H 283.7456082403497 1.8487112765893698 36.70072916090689 H 0.0 **** 0.06
20226 C 183.7233190218746 240.98121093675718 242.2783787720493 C 0.0 **** -0.24
20227 H 183.31568890338053 240.01297746150965 241.98755584592283 H 0.0 **** 0.06
20228 H 183.10086968501236 241.4172059358127 243.05913195283836 H 0.0 **** 0.06
20229 H 183.7391638354934 241.64284532881018 241.4125680415833 H 0.0 **** 0.06
20230 H 184.73782750971674 240.84913538742666 242.6529384097451 H 0.0 **** 0.06
20231 C 269.21864171059144 95.22632015333758 202.11910426210198 C 0.0 **** -0.24
20232 H 269.3152814686891 94.14104844077224 202.14237259183096 H 0.0 **** 0.06
20233 H 268.6530278772451 95.55883856279587 202.98998017317467 H 0.0 **** 0.06
20234 H 268.6945499669016 95.52403004703643 201.21046350962416 H 0.0 **** 0.06
20235 H 270.2092140912448 95.6797562585746 202.13315425463338 H 0.0 **** 0.06
20236 C 29.0955074530749 15.455132347538353 93.04562610874754 C 0.0 **** -0.24
20237 H 28.68344075933527 14.510196007385701 93.4002973715815 H 0.0 **** 0.06
20238 H 29.369199263356847 15.360969113562774 91.99499752261181 H 0.0 **** 0.06
20239 H 29.97997441660081 15.706933347124306 93.63095832028816 H 0.0 **** 0.06
20240 H 28.349659366052464 16.241908919252452 93.15841177667681 H 0.0 **** 0.06
20241 C 195.03613067872078 25.559896997904048 76.94258870768573 C 0.0 **** -0.24
20242 H 196.10836062803725 25.52736663806411 77.13371185552603 H 0.0 **** 0.06
20243 H 194.52073699002545 24.910306910841086 77.64989374327834 H 0.0 **** 0.06
20244 H 194.83757394818429 25.22218027941085 75.92587587280713 H 0.0 **** 0.06
20245 H 194.67813271259223 26.583384158590206 77.06164687006421 H 0.0 **** 0.06
20246 C 127.439896116874 154.66122007811697 224.40412988413374 C 0.0 **** -0.24
20247 H 127.00206575375171 153.7252510598654 224.74904858997365 H 0.0 **** 0.06
20248 H 126.7359433749591 155.1699136594038 223.74552474647876 H 0.0 **** 0.06
20249 H 128.36160940965934 154.4536636034341 223.86155522494127 H 0.0 **** 0.06
20250 H 127.6591394454783 155.2974201035172 225.2615931429966 H 0.0 **** 0.06
20251 C 82.25739271230316 98.31000737924694 230.2449170111184 C 0.0 **** -0.24
20252 H 82.29231367273064 97.36373118019694 229.7052669109832 H 0.0 **** 0.06
20253 H 82.8219821780645 99.06301600588506 229.69498965795634 H 0.0 **** 0.06
20254 H 82.69400526818436 98.17937815766217 231.23483813442408 H 0.0 **** 0.06
20255 H 81.22119070318519 98.63422852900365 230.3436307104455 H 0.0 **** 0.06
20256 C 134.0268924127052 177.52615539015693 20.810805146384553 C 0.0 **** -0.24
20257 H 134.47926426765542 177.30505591911077 21.7777560658063 H 0.0 **** 0.06
20258 H 133.95934804973908 178.6067447643751 20.6810603289415 H 0.0 **** 0.06
20259 H 133.0288513872629 177.09150612095334 20.768787670707454 H 0.0 **** 0.06
20260 H 134.6421111189017 177.10248045473855 20.016404210502472 H 0.0 **** 0.06
20261 C 77.80601710107291 143.0679477920178 71.9694292924076 C 0.0 **** -0.24
20262 H 77.48408552082341 143.02107200094352 70.92934945626848 H 0.0 **** 0.06
20263 H 76.97345530460908 143.3968764446637 72.5930005841607 H 0.0 **** 0.06
20264 H 78.63070525114944 143.77414708041522 72.06279613675372 H 0.0 **** 0.06
20265 H 78.13389901393242 142.08064618972733 72.29320134611007 H 0.0 **** 0.06
20266 C 76.94731777871104 79.35174589920175 286.977752573472 C 0.0 **** -0.24
20267 H 75.92849309405517 78.96417567073775 286.997038113776 H 0.0 **** 0.06
20268 H 77.12628730592436 79.85483834450082 286.0279966861265 H 0.0 **** 0.06
20269 H 77.65108277016725 78.52624890373957 287.091065872934 H 0.0 **** 0.06
20270 H 77.08281104250358 80.0596757619027 287.79611877515407 H 0.0 **** 0.06
20271 C 109.02343328951983 103.67152193425326 228.7654097743614 C 0.0 **** -0.24
20272 H 107.95799765798367 103.88017683126657 228.86701884410053 H 0.0 **** 0.06
20273 H 109.20676623518912 102.61577075688871 228.96361378487288 H 0.0 **** 0.06
20274 H 109.58061674276868 104.27822223925224 229.47978831040626 H 0.0 **** 0.06
20275 H 109.34600404674825 103.91334818568274 227.75307261842394 H 0.0 **** 0.06
20276 C 3.1482223498313147 253.61628111491353 180.9816662943262 C 0.0 **** -0.24
20277 H 2.086124404836397 253.86151205432432 180.9678426627296 H 0.0 **** 0.06
20278 H 3.7175601782772105 254.4467062219228 180.5647839054339 H 0.0 **** 0.06
20279 H 3.3209487076584168 252.72125818155104 180.3841498483472 H 0.0 **** 0.06
20280 H 3.4655610998237876 253.4352622840287 182.0082799740664 H 0.0 **** 0.06
20281 C 172.09611764891713 75.98538728510539 184.62911987732906 C 0.0 **** -0.24
20282 H 171.08612718007856 75.87641980421532 184.23251718436677 H 0.0 **** 0.06
20283 H 172.25630811402158 77.01872174293896 184.93671256721012 H 0.0 **** 0.06
20284 H 172.8188468292205 75.71955266027507 183.85824645692327 H 0.0 **** 0.06
20285 H 172.22199812004385 75.32677686026207 185.48824371208093 H 0.0 **** 0.06
20286 C 92.52623195530145 262.75073409850376 220.95092452890657 C 0.0 **** -0.24
20287 H 91.57299854965012 262.65942640910157 220.4305320531895 H 0.0 **** 0.06
20288 H 93.26940966074437 262.1202672794835 220.46240754889965 H 0.0 **** 0.06
20289 H 92.40604561499362 262.4347795767269 221.98801196083218 H 0.0 **** 0.06
20290 H 92.85589803395987 263.78938836346117 220.92409274068928 H 0.0 **** 0.06
20291 C 278.2128265929091 285.4046524843686 75.89396151929498 C 0.0 **** -0.24
20292 H 277.81563813961674 285.417101703772 76.90926379072704 H 0.0 **** 0.06
20293 H 277.96773390936323 284.4535498128519 75.41988173637563 H 0.0 **** 0.06
20294 H 279.2954374454652 285.5278680181226 75.92627289308109 H 0.0 **** 0.06
20295 H 277.77058489944 286.22060444585645 75.32146694677999 H 0.0 **** 0.06
20296 C 284.3388988404514 47.16524265108822 207.10000433392162 C 0.0 **** -0.24
20297 H 283.43751574708864 46.638948997068525 207.41447827542723 H 0.0 **** 0.06
20298 H 284.50162971339284 48.02619014785941 207.74828469008096 H 0.0 **** 0.06
20299 H 284.2236093671107 47.50044630676973 206.0702363079235 H 0.0 **** 0.06
20300 H 285.19363391421183 46.49252167421193 207.16929206806478 H 0.0 **** 0.06
20301 C 286.720199985709 134.61704793323614 221.0987546936941 C 0.0 **** -0.24
20302 H 287.6926159784926 134.2605187830278 221.4393636406615 H 0.0 **** 0.06
20303 H 286.2177332923196 135.13531991093078 221.91527152000745 H 0.0 **** 0.06
20304 H 286.11495898961755 133.76912213731057 220.77779125007334 H 0.0 **** 0.06
20305 H 286.8577796685178 135.30238261419433 220.2628058000211 H 0.0 **** 0.06
20306 C 89.15357551101104 241.64536299241948 111.64042393717716 C 0.0 **** -0.24
20307 H 90.14415431057142 241.19455532941615 111.59113461398488 H 0.0 **** 0.06
20308 H 89.00832451931794 242.29821710785342 110.77923521965556 H 0.0 **** 0.06
20309 H 89.06440015608732 242.22633535178642 112.55733190153705 H 0.0 **** 0.06
20310 H 88.3970333718326 240.86059873743807 111.6326517783636 H 0.0 **** 0.06
20311 C 48.85945162545252 107.83983081135133 280.48244641671636 C 0.0 **** -0.24
20312 H 49.751262337321606 107.27887291614468 280.2038746276022 H 0.0 **** 0.06
20313 H 49.112127455372104 108.89524222342058 280.5896986023271 H 0.0 **** 0.06
20314 H 48.47216348082398 107.46061368351124 281.42852179231755 H 0.0 **** 0.06
20315 H 48.10086874974081 107.72433637797278 279.70756164362473 H 0.0 **** 0.06
20316 C 9.331803850948063 119.62847345866393 228.77523691957026 C 0.0 **** -0.24
20317 H 9.570373318172415 120.67599484912958 228.5879352880997 H 0.0 **** 0.06
20318 H 8.302493524947522 119.4306513867088 228.47536189136656 H 0.0 **** 0.06
20319 H 9.448908887057769 119.41483007750213 229.83759527036995 H 0.0 **** 0.06
20320 H 10.006845413170538 118.9943692224839 228.20051867840556 H 0.0 **** 0.06
20321 C 156.00565362242628 292.85517963357347 231.56172599866244 C 0.0 **** -0.24
20322 H 156.41462649248092 292.34816893004637 232.4357309691654 H 0.0 **** 0.06
20323 H 154.97324178609244 293.14360759250076 231.75877031270804 H 0.0 **** 0.06
20324 H 156.03818577034406 292.18333335665324 230.70355375892726 H 0.0 **** 0.06
20325 H 156.59774407143288 293.74518933892955 231.3476559718882 H 0.0 **** 0.06
20326 C 297.47381620234347 75.98961915144818 258.99540436695827 C 0.0 **** -0.24
20327 H 298.4929705664107 76.1408794325587 258.63825024888183 H 0.0 **** 0.06
20328 H 297.44501364623994 75.1184487495 259.6513006254246 H 0.0 **** 0.06
20329 H 296.8118009583146 75.82616885491018 258.1453666238767 H 0.0 **** 0.06
20330 H 297.14761785819616 76.87114437778146 259.5469451756885 H 0.0 **** 0.06
20331 C 137.7116496800671 43.643907739718514 219.03903638702116 C 0.0 **** -0.24
20332 H 137.61998734551202 42.707553451360894 219.58864352772076 H 0.0 **** 0.06
20333 H 137.11969290452737 43.58867911917966 218.12582867669707 H 0.0 **** 0.06
20334 H 138.75757644417274 43.81442734724965 218.78430001988613 H 0.0 **** 0.06
20335 H 137.35027916479893 44.46499191837589 219.65772166214822 H 0.0 **** 0.06
20336 C 66.6385833825938 189.18926879452067 200.5540056418713 C 0.0 **** -0.24
20337 H 66.32778942926646 188.37313763804394 199.9022423404773 H 0.0 **** 0.06
20338 H 67.61152412068324 188.95848260039827 200.98749658907155 H 0.0 **** 0.06
20339 H 65.90610189459844 189.31589619582064 201.35027174951074 H 0.0 **** 0.06
20340 H 66.70751057805879 190.1102545080763 199.97413176582364 H 0.0 **** 0.06
20341 C 113.549158725181 298.4217742951747 3.409275434024906 C 0.0 **** -0.24
20342 H 112.6649455429667 298.4870819405511 4.042139797928442 H 0.0 **** 0.06
20343 H 113.28411541326918 298.68631621299664 2.385384341851079 H 0.0 **** 0.06
20344 H 113.93860437200672 297.403456547711 3.4332839392214254 H 0.0 **** 0.06
20345 H 114.31033722194346 299.10994900075997 3.7773151357925343 H 0.0 **** 0.06
20346 C 193.87912846497875 194.94308171015166 185.5875329967356 C 0.0 **** -0.24
20347 H 193.34148379742805 195.82025091340734 185.2272404057244 H 0.0 **** 0.06
20348 H 193.18852353291948 194.28600421569024 186.11695187431474 H 0.0 **** 0.06
20349 H 194.6738042215515 195.2580751583671 186.26538248513975 H 0.0 **** 0.06
20350 H 194.31318375456448 194.41001589242336 184.74185741602054 H 0.0 **** 0.06
20351 C 106.16482821835166 223.09328055306602 178.62463318643586 C 0.0 **** -0.24
20352 H 106.79324600309073 222.56684361940964 177.90627492445128 H 0.0 **** 0.06
20353 H 106.75479042555685 223.34461214674363 179.50673940429044 H 0.0 **** 0.06
20354 H 105.3313542653195 222.45457700881323 178.91443017635606 H 0.0 **** 0.06
20355 H 105.78191168044589 224.0070369425996 178.1708903819465 H 0.0 **** 0.06
20356 C 26.995410971928095 90.42222086093932 26.078017012387335 C 0.0 **** -0.24
20357 H 26.708913040073753 91.27658279837567 26.691775896318404 H 0.0 **** 0.06
20358 H 27.42635317840825 89.64764106098357 26.71284084680522 H 0.0 **** 0.06
20359 H 27.73260087658207 90.73736579297383 25.339211849666185 H 0.0 **** 0.06
20360 H 26.115307109764785 90.02859078417737 25.569227364566842 H 0.0 **** 0.06
20361 C 305.4753986581023 209.40434840920548 287.624869945933 C 0.0 **** -0.24
20362 H 304.67352789614284 210.11829784973776 287.43339714582 H 0.0 **** 0.06
20363 H 306.2754330897587 209.5549459875587 286.8997205615757 H 0.0 **** 0.06
20364 H 305.08724501356903 208.39007529489027 287.53334319383805 H 0.0 **** 0.06
20365 H 305.86304389873686 209.55615507895254 288.6319356089568 H 0.0 **** 0.06
20366 C 231.59740503397518 253.23629994703396 61.08988404740239 C 0.0 **** -0.24
20367 H 231.63002934692346 253.04710605683513 62.16271473059757 H 0.0 **** 0.06
20368 H 232.4499288313034 252.7544896837075 60.61018268263845 H 0.0 **** 0.06
20369 H 231.63815889053564 254.310479234678 60.90919832186108 H 0.0 **** 0.06
20370 H 230.67276387978723 252.83308961194086 60.678080080466714 H 0.0 **** 0.06
20371 C 26.99827798192851 189.99738904883742 279.4355508737918 C 0.0 **** -0.24
20372 H 26.622399096231902 188.97548521101737 279.39370644800596 H 0.0 **** 0.06
20373 H 27.91523991447673 190.02387199504955 280.02411507332727 H 0.0 **** 0.06
20374 H 26.249582453024374 190.63957683492788 279.90018751208646 H 0.0 **** 0.06
20375 H 27.203915724785872 190.35114290513553 278.42510509133723 H 0.0 **** 0.06
20376 C 172.91085573914535 267.91213080216136 278.39018167823457 C 0.0 **** -0.24
20377 H 173.68495579520885 267.8101745368715 277.63019985671446 H 0.0 **** 0.06
20378 H 172.0169958281113 267.37454498467554 278.0724596268153 H 0.0 **** 0.06
20379 H 172.67079112034457 268.9669885313826 278.52552754044996 H 0.0 **** 0.06
20380 H 173.26910835826072 267.4975112537487 279.33232818487534 H 0.0 **** 0.06
20381 C 226.68778357453346 92.16799231283923 209.20857821081563 C 0.0 **** -0.24
20382 H 226.94153031808543 93.21139108061368 209.39642642779913 H 0.0 **** 0.06
20383 H 225.94437092070254 92.11295454576319 208.41239869150215 H 0.0 **** 0.06
20384 H 226.28169193489978 91.72333664473524 210.11677326917817 H 0.0 **** 0.06
20385 H 227.5844141366802 91.62542184652324 208.90699691273576 H 0.0 **** 0.06
20386 C 151.80300993950908 31.61824785579742 279.4970692240452 C 0.0 **** -0.24
20387 H 152.54266781235174 31.233124424936335 278.79453272819785 H 0.0 **** 0.06
20388 H 150.8723489459241 31.061638243374915 279.38683218720166 H 0.0 **** 0.06
20389 H 151.623073109154 32.67370067029543 279.2916101149684 H 0.0 **** 0.06
20390 H 152.17639381548958 31.50449085176325 280.5151410183662 H 0.0 **** 0.06
20391 C 29.435532340313074 14.296097345882018 219.60925005824498 C 0.0 **** -0.24
20392 H 29.203663326626923 14.88955770558232 218.72497582986142 H 0.0 **** 0.06
20393 H 29.45417995555411 14.94380236464545 220.4858901361838 H 0.0 **** 0.06
20394 H 30.4104567720141 13.825017064304618 219.4847146422938 H 0.0 **** 0.06
20395 H 28.674491759423745 13.527464153684903 219.74021415890218 H 0.0 **** 0.06
20396 C 224.46731067951868 82.04425453675091 142.47721784388105 C 0.0 **** -0.24
20397 H 225.39281766121786 82.315673326481 142.98553666084172 H 0.0 **** 0.06
20398 H 223.63158606350373 82.14097347537879 143.170640633666 H 0.0 **** 0.06
20399 H 224.53377312446818 81.01345246256764 142.12836948177127 H 0.0 **** 0.06
20400 H 224.3127051034865 82.70664993643828 141.62582146276947 H 0.0 **** 0.06
20401 C 205.3223402366732 197.85950576807437 41.15880507949507 C 0.0 **** -0.24
20402 H 204.3198340801609 198.28385826618444 41.094239464289075 H 0.0 **** 0.06
20403 H 205.45673610005184 197.12345947567155 40.3654728904086 H 0.0 **** 0.06
20404 H 205.45033219143528 197.3767614477831 42.12726639893782 H 0.0 **** 0.06
20405 H 206.06028994158532 198.65374850295876 41.04773276359168 H 0.0 **** 0.06
20406 C 265.24214236847604 259.8496302299716 131.81886547804655 C 0.0 **** -0.24
20407 H 265.991469529407 259.0746377466606 131.9766431750517 H 0.0 **** 0.06
20408 H 265.5790352128405 260.52605277595484 131.0327381951805 H 0.0 **** 0.06
20409 H 265.0968313491206 260.41001576411566 132.7425402648128 H 0.0 **** 0.06
20410 H 264.29926411004965 259.3877600568122 131.52208459368842 H 0.0 **** 0.06
20411 C 130.76410152539782 281.69605568209266 90.5412705456636 C 0.0 **** -0.24
20412 H 129.95380734350914 282.0905607088999 91.15354945925776 H 0.0 **** 0.06
20413 H 130.42231024697944 280.8029858095673 90.01751461253653 H 0.0 **** 0.06
20414 H 131.61058140120798 281.4421696840239 91.1791044335177 H 0.0 **** 0.06
20415 H 131.07003072425172 282.4484494884978 89.81396920659759 H 0.0 **** 0.06
20416 C 92.99762709939753 134.61296742227302 91.47767984105872 C 0.0 **** -0.24
20417 H 94.0717126953005 134.62834486510664 91.2966383805381 H 0.0 **** 0.06
20418 H 92.74779407281252 133.75518556081127 92.10393545761826 H 0.0 **** 0.06
20419 H 92.46983324492138 134.5343831911713 90.52785643096882 H 0.0 **** 0.06
20420 H 92.70086458292036 135.53081689300984 91.98372203399595 H 0.0 **** 0.06
20421 C 158.40237467222767 1.0095310072980368 136.6099819204696 C 0.0 **** -0.24
20422 H 158.31523835525917 0.4450381592826602 135.68068409707445 H 0.0 **** 0.06
20423 H 157.6995503045993 1.8419228359442172 136.5967117692877 H 0.0 **** 0.06
20424 H 159.4184242268085 1.391777592342379 136.7078961716878 H 0.0 **** 0.06
20425 H 158.17681599942927 0.3559776288317238 137.45318451807037 H 0.0 **** 0.06
20426 C 132.58683411880327 82.41317902047427 229.83593340701478 C 0.0 **** -0.24
20427 H 132.29197983330923 82.38768887479705 230.88455466784075 H 0.0 **** 0.06
20428 H 133.18707466582728 83.30424981022065 229.6489214058883 H 0.0 **** 0.06
20429 H 131.6950222639861 82.4375183897013 229.2082530992431 H 0.0 **** 0.06
20430 H 133.17181294996172 81.5241225523713 229.60053435592113 H 0.0 **** 0.06
20431 C 266.90478456000477 175.7305948662306 112.23694095187375 C 0.0 **** -0.24
20432 H 266.1925687780023 174.92645688861995 112.42757450703618 H 0.0 **** 0.06
20433 H 267.792925316349 175.58134505695898 112.85110692459247 H 0.0 **** 0.06
20434 H 266.4460566588291 176.6873512775199 112.48611605331854 H 0.0 **** 0.06
20435 H 267.18552928910674 175.72464372515134 111.1840124983305 H 0.0 **** 0.06
20436 C 178.20306802043604 163.97627638181245 222.82006762926298 C 0.0 **** -0.24
20437 H 177.36689439485554 164.61360203550828 223.11119996702143 H 0.0 **** 0.06
20438 H 178.63823769586202 163.520405175878 223.70993455831317 H 0.0 **** 0.06
20439 H 178.95832553021887 164.57785959001967 222.31355988904494 H 0.0 **** 0.06
20440 H 177.84796857246573 163.1956075144629 222.1472111420962 H 0.0 **** 0.06
20441 C 177.09576698857546 235.11211528775317 277.66751201734195 C 0.0 **** -0.24
20442 H 176.49837866820695 234.69185983956848 278.4766979685616 H 0.0 **** 0.06
20443 H 176.88550170209237 236.17783608601061 277.5767704068704 H 0.0 **** 0.06
20444 H 176.84414616983196 234.61016278181103 276.7333616041795 H 0.0 **** 0.06
20445 H 178.15394585827835 234.96676727124225 277.88441472112765 H 0.0 **** 0.06
20446 C 230.38370527419755 181.33360534451793 247.96549623895797 C 0.0 **** -0.24
20447 H 230.1397485464791 180.77368774309627 247.06227049315646 H 0.0 **** 0.06
20448 H 231.31031616888566 181.88736969629457 247.8098567557936 H 0.0 **** 0.06
20449 H 230.50940001288262 180.64180901587855 248.7985544743066 H 0.0 **** 0.06
20450 H 229.57681690686587 182.03061615232502 248.19031048093993 H 0.0 **** 0.06
20451 C 244.52038402011826 23.054899047711302 55.0415303101293 C 0.0 **** -0.24
20452 H 245.1604805325389 22.23829562577032 54.70679809134904 H 0.0 **** 0.06
20453 H 244.6990693483888 23.245376613720794 56.09890687121427 H 0.0 **** 0.06
20454 H 243.47566605957138 22.781407044372997 54.891834420428665 H 0.0 **** 0.06
20455 H 244.74623928779883 23.95247275527555 54.46638755871774 H 0.0 **** 0.06
20456 C 16.152842143636917 150.90265291402955 186.85208687128875 C 0.0 **** -0.24
20457 H 16.41454990729642 150.2046327079094 186.05712511978078 H 0.0 **** 0.06
20458 H 15.169195180598123 150.64959128740873 187.24957123815165 H 0.0 **** 0.06
20459 H 16.133571167871054 151.91678198096594 186.45429143342943 H 0.0 **** 0.06
20460 H 16.893912945037528 150.83889457022843 187.64922380647727 H 0.0 **** 0.06
20461 C 25.04356088842647 72.93530638646229 214.4916947375092 C 0.0 **** -0.24
20462 H 24.324343641303614 73.59067234227228 213.99994951124967 H 0.0 **** 0.06
20463 H 25.637040846414607 73.5147999091648 215.2006250287649 H 0.0 **** 0.06
20464 H 25.70161439268054 72.49222067406774 213.74386655589194 H 0.0 **** 0.06
20465 H 24.512892342251575 72.14504229724469 215.0224158619559 H 0.0 **** 0.06
20466 C 41.60504446164464 123.42744766517669 115.48397561541464 C 0.0 **** -0.24
20467 H 41.56040776945363 123.93570122487091 114.52053218860206 H 0.0 **** 0.06
20468 H 41.98650388382836 124.11446577912614 116.23933921671548 H 0.0 **** 0.06
20469 H 42.26741509308499 122.56523820747552 115.40880017928865 H 0.0 **** 0.06
20470 H 40.60604606031396 123.09468987211758 115.76553696714467 H 0.0 **** 0.06
20471 C 288.3191403626097 307.346270477639 141.37782752602322 C 0.0 **** -0.24
20472 H 287.4545963075102 308.0098349790358 141.37089370544064 H 0.0 **** 0.06
20473 H 289.119232297552 307.7996545398778 141.96345295255963 H 0.0 **** 0.06
20474 H 288.66254948073555 307.18731379043936 140.35464752812783 H 0.0 **** 0.06
20475 H 288.04034738631094 306.39050867911567 141.8205839002345 H 0.0 **** 0.06
20476 C 245.67573216395635 10.748743663739774 301.92641111622106 C 0.0 **** -0.24
20477 H 245.9849399868533 10.182131397137269 301.0484182865465 H 0.0 **** 0.06
20478 H 244.6295844055744 11.037641951159756 301.8218788231005 H 0.0 **** 0.06
20479 H 246.29282807924997 11.643104551058599 302.01664740485 H 0.0 **** 0.06
20480 H 245.79647681218717 10.13284560970152 302.81790742551027 H 0.0 **** 0.06
20481 C 142.20112375969805 254.12758344256292 158.8373368660034 C 0.0 **** -0.24
20482 H 142.12801490155252 254.78333644986836 157.96985174380063 H 0.0 **** 0.06
20483 H 142.20837536059443 253.0880997501357 158.50735895229388 H 0.0 **** 0.06
20484 H 141.3461999822281 254.29476913557514 159.49222741183587 H 0.0 **** 0.06
20485 H 143.12199506110306 254.34379685087828 159.37853752769814 H 0.0 **** 0.06
20486 C 177.6045011215507 231.59717469403807 126.42033201269737 C 0.0 **** -0.24
20487 H 178.13898485482235 232.332137391084 125.81814240431856 H 0.0 **** 0.06
20488 H 177.624267621176 231.9026522084345 127.46649458319314 H 0.0 **** 0.06
20489 H 178.08425687522202 230.6237224184974 126.31613778835231 H 0.0 **** 0.06
20490 H 176.57133982482992 231.53092316185 126.07923258490092 H 0.0 **** 0.06
20491 C 129.1421443341755 86.68556628628122 118.1794144740561 C 0.0 **** -0.24
20492 H 128.34085718894295 85.954297918723 118.28210250689966 H 0.0 **** 0.06
20493 H 128.86886831049156 87.60003566337286 118.70594303308258 H 0.0 **** 0.06
20494 H 129.2994426849718 86.90546352132947 117.12386069468519 H 0.0 **** 0.06
20495 H 130.05966132846734 86.28001865685087 118.60714340760589 H 0.0 **** 0.06
20496 C 265.6977690671771 10.049692778330325 132.30058509690932 C 0.0 **** -0.24
20497 H 266.304960066897 10.94029306967974 132.46538668953724 H 0.0 **** 0.06
20498 H 266.34245139182235 9.220871976773935 132.0073170774741 H 0.0 **** 0.06
20499 H 264.9738229196463 10.24467875835694 131.50995699913335 H 0.0 **** 0.06
20500 H 265.17181362542783 9.793975385740282 133.21979716888703 H 0.0 **** 0.06
20501 C 258.96610473467376 2.7015546579024345 46.00479382306324 C 0.0 **** -0.24
20502 H 259.592848375954 2.659544421197495 45.11423169938192 H 0.0 **** 0.06
20503 H 258.5850428254598 1.7043135642956742 46.226997281355295 H 0.0 **** 0.06
20504 H 258.1314321499722 3.3800783806175474 45.83035018946154 H 0.0 **** 0.06
20505 H 259.5567338296231 3.0605265612087464 46.84807953862642 H 0.0 **** 0.06
20506 C 10.212995468489737 58.01169048790274 238.91758869839236 C 0.0 **** -0.24
20507 H 9.228154377438443 58.098916302569876 238.45722358386854 H 0.0 **** 0.06
20508 H 10.796396234036663 58.90500501030613 238.69628786844186 H 0.0 **** 0.06
20509 H 10.723481190542387 57.13515910543447 238.51826500232568 H 0.0 **** 0.06
20510 H 10.1018445179336 57.90689222624982 239.99659246954542 H 0.0 **** 0.06
20511 C 209.82161995483918 149.97513537365347 235.84902395048414 C 0.0 **** -0.24
20512 H 210.0156374973023 148.93916989346457 235.57346803756897 H 0.0 **** 0.06
20513 H 208.9001786471543 150.31166372420392 235.37225047960402 H 0.0 **** 0.06
20514 H 210.65146489794142 150.5999155811544 235.51936137948422 H 0.0 **** 0.06
20515 H 209.71899959496142 150.04943091031032 236.93236858265107 H 0.0 **** 0.06
20516 C 222.2797918205226 188.66028193492173 294.870601784343 C 0.0 **** -0.24
20517 H 221.77218341177485 187.94642134505938 294.2221489256217 H 0.0 **** 0.06
20518 H 221.63151502990544 189.5192650515969 295.0432069901658 H 0.0 **** 0.06
20519 H 223.20264515079066 188.99144261100054 294.3928710087985 H 0.0 **** 0.06
20520 H 222.5142110279566 188.18344826388744 295.8228489370169 H 0.0 **** 0.06
20521 C 66.83615791245165 118.56358921466531 4.922691909356885 C 0.0 **** -0.24
20522 H 67.47354777394028 119.14703423173191 4.258547779715315 H 0.0 **** 0.06
20523 H 65.91192210421372 118.30575201192215 4.405366577905127 H 0.0 **** 0.06
20524 H 66.60353790737759 119.15210200891923 5.810997589110343 H 0.0 **** 0.06
20525 H 67.35547958500345 117.65233570510401 5.217181953021409 H 0.0 **** 0.06
20526 C 76.31916387697251 224.46922353132834 132.4385129315262 C 0.0 **** -0.24
20527 H 76.96448483788089 223.8288690352012 133.03980597687996 H 0.0 **** 0.06
20528 H 75.71125071444834 225.09164406111805 133.09651340956447 H 0.0 **** 0.06
20529 H 75.66894663596597 223.8503543240629 131.82025425314737 H 0.0 **** 0.06
20530 H 76.93151129815385 225.10544670615943 131.79981264527865 H 0.0 **** 0.06
20531 C 53.17259555601569 89.97283550197929 73.16289131215976 C 0.0 **** -0.24
20532 H 53.0159056425251 89.27060709519958 73.98156944476017 H 0.0 **** 0.06
20533 H 53.10094117668811 89.44380537523674 72.21211682322362 H 0.0 **** 0.06
20534 H 54.16132568285286 90.42305723072062 73.25487220201666 H 0.0 **** 0.06
20535 H 52.41304133548283 90.75273076718054 73.2030796854553 H 0.0 **** 0.06
20536 C 188.3453541190018 297.3208434202553 61.88429477883699 C 0.0 **** -0.24
20537 H 188.83374853550583 298.2139201581074 62.2746013067879 H 0.0 **** 0.06
20538 H 188.85416067960506 296.4343230812115 62.264264418597094 H 0.0 **** 0.06
20539 H 188.39090571715303 297.3286715957658 60.79584491048391 H 0.0 **** 0.06
20540 H 187.3039688888008 297.30714400385204 62.20523632542006 H 0.0 **** 0.06
20541 C 171.01141336369506 168.6581246479555 73.32920252670394 C 0.0 **** -0.24
20542 H 171.62204954882094 167.9948818478033 73.94315023994446 H 0.0 **** 0.06
20543 H 170.94581752730113 168.25734900377665 72.31787349149508 H 0.0 **** 0.06
20544 H 171.46678988813414 169.64790555508165 73.30119671408855 H 0.0 **** 0.06
20545 H 170.01134641331487 168.7298109146376 73.75838026378887 H 0.0 **** 0.06
20546 C 282.15937672240403 261.4673885431302 277.3544898778277 C 0.0 **** -0.24
20547 H 281.30786302309315 260.97669929642905 277.82619299859124 H 0.0 **** 0.06
20548 H 282.17355702602805 262.52095703426903 277.63656914141785 H 0.0 **** 0.06
20549 H 282.07245547049615 261.3825967491112 276.27084676234176 H 0.0 **** 0.06
20550 H 283.08172738264085 260.9900896375028 277.6834828234059 H 0.0 **** 0.06
20551 C 246.309525924186 58.828073079682326 64.2199548926778 C 0.0 **** -0.24
20552 H 246.38848790941503 59.84722037984059 63.842815487374224 H 0.0 **** 0.06
20553 H 247.2643764474252 58.318325293641664 64.09017421502602 H 0.0 **** 0.06
20554 H 245.5355608028403 58.294909262800275 63.66712879990425 H 0.0 **** 0.06
20555 H 246.04926343751842 58.85074019397254 65.27755074358527 H 0.0 **** 0.06
20556 C 36.828513727006 230.71061385713037 222.15507279622264 C 0.0 **** -0.24
20557 H 37.16745819984499 231.17517594403824 221.22984738824834 H 0.0 **** 0.06
20558 H 36.636053375842096 229.6519548820822 221.98013984030172 H 0.0 **** 0.06
20559 H 35.91254977570537 231.19573498444043 222.49057671015086 H 0.0 **** 0.06
20560 H 37.59784483314172 230.81827459422865 222.91922864523303 H 0.0 **** 0.06
20561 C 167.52429270328088 102.73706716161266 188.27481998931785 C 0.0 **** -0.24
20562 H 166.52645871574265 102.34830496966222 188.0686607139898 H 0.0 **** 0.06
20563 H 168.2562488749166 102.19011271848083 187.67967937196192 H 0.0 **** 0.06
20564 H 167.75017555295682 102.61320353184632 189.33399471045567 H 0.0 **** 0.06
20565 H 167.5624635599117 103.79434273364305 188.0163442817386 H 0.0 **** 0.06
20566 C 307.0271808960745 211.46244465962522 40.765753916930265 C 0.0 **** -0.24
20567 H 306.2432549793342 211.35772024710582 40.016026431668735 H 0.0 **** 0.06
20568 H 307.55651465117086 212.4029113114517 40.60841476596934 H 0.0 **** 0.06
20569 H 307.72762534649155 210.63190076845592 40.67561641818793 H 0.0 **** 0.06
20570 H 306.5822278447953 211.4570645333434 41.76028253985814 H 0.0 **** 0.06
20571 C 71.75844218787933 298.05919239406455 159.79063360465778 C 0.0 **** -0.24
20572 H 70.96369421439832 298.2465913190214 159.06764214023775 H 0.0 **** 0.06
20573 H 71.5855584166766 297.10019738095195 160.279632703863 H 0.0 **** 0.06
20574 H 71.76372301820487 298.8530175791775 160.53779157974327 H 0.0 **** 0.06
20575 H 72.7191025811189 298.0375783386269 159.27613988154206 H 0.0 **** 0.06
20576 C 282.00653243516126 16.237665167513498 61.758754186905264 C 0.0 **** -0.24
20577 H 282.8982256508193 15.610323717927614 61.78373958478622 H 0.0 **** 0.06
20578 H 281.43603877691936 16.09298838942864 62.676882702619366 H 0.0 **** 0.06
20579 H 281.3923167927211 15.961726289586153 60.901703296096 H 0.0 **** 0.06
20580 H 282.3002204775928 17.283864623229178 61.67389912216839 H 0.0 **** 0.06
20581 C 45.11968754025921 80.9674905945196 286.2361682087492 C 0.0 **** -0.24
20582 H 45.142545074694624 79.89173716849518 286.06228764914874 H 0.0 **** 0.06
20583 H 45.39705162485379 81.17376165879716 287.2699170963511 H 0.0 **** 0.06
20584 H 44.115398974468775 81.34573515766314 286.0456140787911 H 0.0 **** 0.06
20585 H 45.82589406104381 81.45830819525571 285.56573790866514 H 0.0 **** 0.06
20586 C 314.0878614726532 303.1493270360223 151.52718008698088 C 0.0 **** -0.24
20587 H 314.00292484954 303.3351904913187 150.45605455729964 H 0.0 **** 0.06
20588 H 314.58683292937843 302.1943741029372 151.69197308056874 H 0.0 **** 0.06
20589 H 313.0919412935598 303.1203938910938 151.97030673279625 H 0.0 **** 0.06
20590 H 314.66776364701667 303.94757733291937 151.98937839634385 H 0.0 **** 0.06
20591 C 55.54845802561306 61.70955227675847 242.65984338287694 C 0.0 **** -0.24
20592 H 55.559608399301055 61.1979449381935 241.69717887619413 H 0.0 **** 0.06
20593 H 55.048072703637445 61.08268500303069 243.3980488430914 H 0.0 **** 0.06
20594 H 55.012642666274985 62.65427518824703 242.5617012602652 H 0.0 **** 0.06
20595 H 56.57159544965771 61.90381075596642 242.98018975871116 H 0.0 **** 0.06
20596 C 185.4032232829952 177.29464107948678 306.2514987332959 C 0.0 **** -0.24
20597 H 185.8769673572009 177.68202507810412 307.15324345196314 H 0.0 **** 0.06
20598 H 185.81422340353362 177.80194320236308 305.37846963379377 H 0.0 **** 0.06
20599 H 184.32905157171524 177.47119464066037 306.301840785083 H 0.0 **** 0.06
20600 H 185.59197977720055 176.22413835448344 306.17252246834386 H 0.0 **** 0.06
20601 C 12.457516401866144 231.4952627449341 229.56544965601756 C 0.0 **** -0.24
20602 H 12.237335543934478 232.24161289372722 228.80243183617938 H 0.0 **** 0.06
20603 H 11.652728744771139 231.47830873174888 230.30071949802914 H 0.0 **** 0.06
20604 H 13.396207066640216 231.7471310038635 230.0590685034682 H 0.0 **** 0.06
20605 H 12.544354894766172 230.51339629262878 229.0990102701063 H 0.0 **** 0.06
20606 C 150.33397639036383 116.09326141589534 160.47452456325794 C 0.0 **** -0.24
20607 H 150.68536570345168 115.97500763099777 159.44909979918094 H 0.0 **** 0.06
20608 H 150.86800262025002 116.91621206622199 160.94912287861376 H 0.0 **** 0.06
20609 H 150.51490638692496 115.17274678448862 161.02854667003044 H 0.0 **** 0.06
20610 H 149.2651814676679 116.30940883914994 160.46851965063405 H 0.0 **** 0.06
20611 C 313.26642899313174 79.46595820848856 74.47167953486422 C 0.0 **** -0.24
20612 H 313.7520272819528 80.19702614131916 75.1179119454033 H 0.0 **** 0.06
20613 H 313.6945406322633 78.47949446223498 74.65433511004028 H 0.0 **** 0.06
20614 H 313.4217520641985 79.74293565954196 73.42935061293437 H 0.0 **** 0.06
20615 H 312.19842969061773 79.44402266641046 74.68707143127625 H 0.0 **** 0.06
20616 C 243.84323645673334 13.036818611327789 128.8998437405585 C 0.0 **** -0.24
20617 H 243.37224468443821 13.319003404519279 129.84070389831578 H 0.0 **** 0.06
20618 H 243.826842783623 13.886813986194824 128.21706232315577 H 0.0 **** 0.06
20619 H 243.29763059652856 12.203684585046418 128.45556421777297 H 0.0 **** 0.06
20620 H 244.87434389510724 12.73837386026321 129.08459904712865 H 0.0 **** 0.06
20621 C 246.95340573472203 74.58441213958204 304.0283316094588 C 0.0 **** -0.24
20622 H 245.97967122938587 74.33854511287333 304.4538194179824 H 0.0 **** 0.06
20623 H 247.03939383772303 74.13962974626452 303.0367273433888 H 0.0 **** 0.06
20624 H 247.7403544365036 74.19203851744663 304.6731199742637 H 0.0 **** 0.06
20625 H 247.05289044655981 75.66734428865539 303.95146741390107 H 0.0 **** 0.06
20626 C 293.0255842936731 97.92116484743906 37.404083033926156 C 0.0 **** -0.24
20627 H 293.740595371361 98.02447459532638 36.58628317059788 H 0.0 **** 0.06
20628 H 293.2660763461616 97.03115607556254 37.985115998681636 H 0.0 **** 0.06
20629 H 292.01904996034966 97.82968713282241 36.99528135126798 H 0.0 **** 0.06
20630 H 293.0788798633863 98.80086083233044 38.045835251201424 H 0.0 **** 0.06
20631 C 38.352362189317745 185.29283188770825 53.39364898881428 C 0.0 **** -0.24
20632 H 37.67849215416567 184.89834819660706 54.15366289637424 H 0.0 **** 0.06
20633 H 37.7994057734949 185.45936454414368 52.46826180807014 H 0.0 **** 0.06
20634 H 39.15495070691932 184.57813152975694 53.21309036344368 H 0.0 **** 0.06
20635 H 38.77668834337402 186.23641424781778 53.7385199794347 H 0.0 **** 0.06
20636 C 292.0272110100922 166.60548545367868 69.02484060998393 C 0.0 **** -0.24
20637 H 292.99083419423073 166.13691715284273 69.22669565660442 H 0.0 **** 0.06
20638 H 291.76792597308247 167.27051921127975 69.84831782191691 H 0.0 **** 0.06
20639 H 291.2631287790464 165.83482858226387 68.9243981915468 H 0.0 **** 0.06
20640 H 292.08971556041485 167.17862312320284 68.09943164853345 H 0.0 **** 0.06
20641 C 94.38747882502247 76.36107173235482 41.711419879219875 C 0.0 **** -0.24
20642 H 93.31283505958697 76.50090548559547 41.59339170507843 H 0.0 **** 0.06
20643 H 94.90813726697948 77.26654203023674 41.39729779576882 H 0.0 **** 0.06
20644 H 94.71514791750855 75.52129826788692 41.098723507752 H 0.0 **** 0.06
20645 H 94.61390077602522 76.15624153709365 42.75838742734746 H 0.0 **** 0.06
20646 C 198.0283054569067 67.35407353286155 287.8794492845682 C 0.0 **** -0.24
20647 H 198.114250133651 66.35531186903415 288.3063157706665 H 0.0 **** 0.06
20648 H 197.9834810492123 67.28227085148546 286.7928773835802 H 0.0 **** 0.06
20649 H 198.89373584437323 67.9490678482959 288.1696842842457 H 0.0 **** 0.06
20650 H 197.11996019993728 67.83013868379118 288.25015836307773 H 0.0 **** 0.06
20651 C 145.57554561297115 225.26862285790577 218.00455771214354 C 0.0 **** -0.24
20652 H 145.00266417514763 226.15446353452734 217.73092931024377 H 0.0 **** 0.06
20653 H 146.5022172846159 225.57176898458013 218.49210195604596 H 0.0 **** 0.06
20654 H 145.80820865361395 224.69606260093303 217.10654155811744 H 0.0 **** 0.06
20655 H 144.9892035817563 224.65320129126906 218.68642695541251 H 0.0 **** 0.06
20656 C 40.31862429965753 94.43388507385046 232.06541898082935 C 0.0 **** -0.24
20657 H 41.37848690080148 94.64813171444854 232.2028816799434 H 0.0 **** 0.06
20658 H 39.72901765746704 95.27723371470918 232.42608147015423 H 0.0 **** 0.06
20659 H 40.05404818111441 93.53822810526682 232.62751365460804 H 0.0 **** 0.06
20660 H 40.115021308383746 94.27324995511475 231.00692782426339 H 0.0 **** 0.06
20661 C 224.80200766069999 91.34022992009844 141.27695792819364 C 0.0 **** -0.24
20662 H 224.13827049166298 91.87842628303218 141.95327441702952 H 0.0 **** 0.06
20663 H 224.20920196579405 90.730454153529 140.59427331730743 H 0.0 **** 0.06
20664 H 225.46685700371154 90.69791366799336 141.85506997312868 H 0.0 **** 0.06
20665 H 225.39533405677025 92.0545921993369 140.70487342521426 H 0.0 **** 0.06
20666 C 42.81986241099332 181.21956826096942 284.16851098797247 C 0.0 **** -0.24
20667 H 43.59669498314639 181.27934488710105 283.40684160063404 H 0.0 **** 0.06
20668 H 41.98001160372604 181.8532363732853 283.8815359018985 H 0.0 **** 0.06
20669 H 43.22047273698081 181.55834496964923 285.1242102401629 H 0.0 **** 0.06
20670 H 42.48129316642644 180.18754767890476 284.2615256958009 H 0.0 **** 0.06
20671 C 121.09508773477572 18.528293649112825 51.28970577597315 C 0.0 **** -0.24
20672 H 120.62593636276492 19.465726697632917 51.59020972687043 H 0.0 **** 0.06
20673 H 120.6957254270445 17.712644842022314 51.89348150095057 H 0.0 **** 0.06
20674 H 122.17258913742515 18.59718221568903 51.440156578302236 H 0.0 **** 0.06
20675 H 120.88623533584018 18.338806183027444 50.236866507559114 H 0.0 **** 0.06
20676 C 75.61913308381733 157.90988879728297 62.45520750124089 C 0.0 **** -0.24
20677 H 76.4242509607902 157.20176043898704 62.65186146976649 H 0.0 **** 0.06
20678 H 74.94190515933076 157.49109133175307 61.71049925405262 H 0.0 **** 0.06
20679 H 76.03881306059594 158.8435337754966 62.08226230911484 H 0.0 **** 0.06
20680 H 75.07216947254241 158.1014772463455 63.37839059480788 H 0.0 **** 0.06
20681 C 67.34123879637579 268.87466936053573 20.36083010339088 C 0.0 **** -0.24
20682 H 67.29724186234122 268.2037916347192 21.219120671508676 H 0.0 **** 0.06
20683 H 68.38333842662152 269.07438750280795 20.10970985746583 H 0.0 **** 0.06
20684 H 66.83990457583207 269.8102463279197 20.60579353086834 H 0.0 **** 0.06
20685 H 66.84504806153649 268.40706097016675 19.510272345917457 H 0.0 **** 0.06
20686 C 237.2299243356352 80.31453321951994 96.27597617480492 C 0.0 **** -0.24
20687 H 237.011317370648 79.30880319267428 95.91990813533343 H 0.0 **** 0.06
20688 H 237.8562152429201 80.82994821662055 95.54714324840398 H 0.0 **** 0.06
20689 H 237.75411034121805 80.25674434883882 97.23000753107485 H 0.0 **** 0.06
20690 H 236.297928936174 80.86434355408122 96.40657679007151 H 0.0 **** 0.06
20691 C 212.7789955154432 124.22745854038504 240.7554749301729 C 0.0 **** -0.24
20692 H 212.149341446702 124.93770628435425 241.2911831015973 H 0.0 **** 0.06
20693 H 212.36501339861394 123.2246192059551 240.8595298448778 H 0.0 **** 0.06
20694 H 213.7871167524064 124.2503192586374 241.17138996573127 H 0.0 **** 0.06
20695 H 212.81604893370957 124.49905089290871 239.70020672208742 H 0.0 **** 0.06
20696 C 260.6093080525486 34.52499694068604 312.74335786235 C 0.0 **** -0.24
20697 H 259.58508335978 34.89398590008818 312.6776518289472 H 0.0 **** 0.06
20698 H 261.13373871235194 35.05303675203294 313.54020715416993 H 0.0 **** 0.06
20699 H 261.11911746944696 34.69640745880895 311.79565161057604 H 0.0 **** 0.06
20700 H 260.5962905907188 33.4573632812988 312.9617480250955 H 0.0 **** 0.06
20701 C 214.2847512458286 188.40778767770803 229.64114605195243 C 0.0 **** -0.24
20702 H 214.57338331532722 189.4580845449875 229.59228530892227 H 0.0 **** 0.06
20703 H 215.03045505107212 187.85245476868806 230.2099953683339 H 0.0 **** 0.06
20704 H 214.22171061087855 188.00240358504902 228.6311856731594 H 0.0 **** 0.06
20705 H 213.31463355849547 188.32000508065136 230.12994175237944 H 0.0 **** 0.06
20706 C 36.802124277857104 103.21646864878949 273.7597319066522 C 0.0 **** -0.24
20707 H 36.1539854973733 102.75024820831803 274.50110560962423 H 0.0 **** 0.06
20708 H 36.20895117251166 103.86930499131378 273.11883430948575 H 0.0 **** 0.06
20709 H 37.275839550525006 102.44415614150634 273.15439020322 H 0.0 **** 0.06
20710 H 37.56974231752173 103.80285678624804 274.26531953515445 H 0.0 **** 0.06
20711 C 272.1029432963925 74.3825365176371 49.1649950192882 C 0.0 **** -0.24
20712 H 272.9529676166379 74.47171573886342 48.48873096568536 H 0.0 **** 0.06
20713 H 271.3319512948887 75.09741818307018 48.87541792496623 H 0.0 **** 0.06
20714 H 272.4272367614925 74.59138639127224 50.18474784783035 H 0.0 **** 0.06
20715 H 271.70029741545557 73.3714566904473 49.111513959173465 H 0.0 **** 0.06
20716 C 303.54292538798217 252.72127960351096 252.4856303758752 C 0.0 **** -0.24
20717 H 303.94044522501184 252.97209749247517 251.50285740631182 H 0.0 **** 0.06
20718 H 302.4537201864846 252.75851480861084 252.4573475098948 H 0.0 **** 0.06
20719 H 303.91291184958567 253.43589106138572 253.22011443125007 H 0.0 **** 0.06
20720 H 303.8650996613318 251.7171697457732 252.7630298803691 H 0.0 **** 0.06
20721 C 53.72043638597236 54.541611814263206 221.73026840145644 C 0.0 **** -0.24
20722 H 52.64984635567353 54.59651247313613 221.53214405641572 H 0.0 **** 0.06
20723 H 54.04669329943533 55.45690929826654 222.22274610250918 H 0.0 **** 0.06
20724 H 54.25797308714016 54.42237647329708 220.78897695710384 H 0.0 **** 0.06
20725 H 53.925852416174735 53.68756754105752 222.3764324583667 H 0.0 **** 0.06
20726 C 248.3500412450489 92.07821377927354 306.9337141903932 C 0.0 **** -0.24
20727 H 248.91984159348868 92.54469111335129 306.13017588455307 H 0.0 **** 0.06
20728 H 248.96857080257973 92.01661257091371 307.8289939380788 H 0.0 **** 0.06
20729 H 248.04882910618517 91.07554718839606 306.63032449885117 H 0.0 **** 0.06
20730 H 247.463314153519 92.67595254386634 307.14444336221055 H 0.0 **** 0.06
20731 C 201.4172779551489 253.84943086327286 93.93064899484216 C 0.0 **** -0.24
20732 H 200.8528878018776 254.77889097531582 94.00727800933419 H 0.0 **** 0.06
20733 H 201.8707822924145 253.7803486143621 92.94136045577139 H 0.0 **** 0.06
20734 H 200.74701986441607 253.00411548758234 94.08363380893718 H 0.0 **** 0.06
20735 H 202.1983343960494 253.83552940261882 94.69112643537466 H 0.0 **** 0.06
20736 C 282.0670555561096 30.208289989945087 283.1569318841655 C 0.0 **** -0.24
20737 H 281.02921347518236 30.139714425177914 283.4828851887097 H 0.0 **** 0.06
20738 H 282.1320229683256 29.955638861226618 282.098830759354 H 0.0 **** 0.06
20739 H 282.6757923728311 29.512885745533225 283.7354876535075 H 0.0 **** 0.06
20740 H 282.4302803969591 31.224805228661637 283.31091512412456 H 0.0 **** 0.06
20741 C 86.06740092542773 301.02447699214656 282.9115758086883 C 0.0 **** -0.24
20742 H 85.8594652247885 301.70181016139327 283.7392707208684 H 0.0 **** 0.06
20743 H 87.14049814950056 301.0069965108929 282.7179314543107 H 0.0 **** 0.06
20744 H 85.54319667731357 301.3698353950389 282.0199341574702 H 0.0 **** 0.06
20745 H 85.72677728973781 300.0221154555319 283.1682901093226 H 0.0 **** 0.06
20746 C 129.57469848249838 45.440026033894014 197.70453152988074 C 0.0 **** -0.24
20747 H 130.31250486283656 45.58765084694778 198.49402441503815 H 0.0 **** 0.06
20748 H 128.66258772579735 45.98029804096416 197.955735571665 H 0.0 **** 0.06
20749 H 129.35454014391013 44.376490375376534 197.60934980179178 H 0.0 **** 0.06
20750 H 129.9725538804801 45.81403609468879 196.76121561976402 H 0.0 **** 0.06
20751 C 37.2817145371192 66.70279741535774 13.080277443899377 C 0.0 **** -0.24
20752 H 37.143824778982264 67.64091989372898 13.617450579904073 H 0.0 **** 0.06
20753 H 37.26348649291705 66.89226280426931 12.0068935628899 H 0.0 **** 0.06
20754 H 36.47973751767299 66.01238322363011 13.341161428015312 H 0.0 **** 0.06
20755 H 38.24183676598534 66.26432515124958 13.3551532997908 H 0.0 **** 0.06
20756 C 250.35168479548366 292.5823783387815 151.28527365141935 C 0.0 **** -0.24
20757 H 250.20913175314632 293.63919205438333 151.5112620387979 H 0.0 **** 0.06
20758 H 251.26550624200866 292.22905477302777 151.7633355441297 H 0.0 **** 0.06
20759 H 250.43065185793782 292.4490813963008 150.20611310714645 H 0.0 **** 0.06
20760 H 249.50076994593962 292.0129149798836 151.66030799072695 H 0.0 **** 0.06
20761 C 56.951858728280826 287.0591612781698 43.88638118594514 C 0.0 **** -0.24
20762 H 57.56632477357073 287.75937510935387 44.452450457895225 H 0.0 **** 0.06
20763 H 56.45564642109784 286.3742414246836 44.57442805452277 H 0.0 **** 0.06
20764 H 57.58279333968329 286.4935269087204 43.20196200245141 H 0.0 **** 0.06
20765 H 56.20225123423626 287.6107762836347 43.31873354703146 H 0.0 **** 0.06
20766 C 261.47264087663973 239.07097902016818 275.31365412712654 C 0.0 **** -0.24
20767 H 261.3954292580599 238.97454802484296 276.39694253842964 H 0.0 **** 0.06
20768 H 261.89601229202907 238.15703920378672 274.89769498956196 H 0.0 **** 0.06
20769 H 262.11806634581626 239.91529932212254 275.07026854000014 H 0.0 **** 0.06
20770 H 260.48122306552807 239.23895201733265 274.89275610293066 H 0.0 **** 0.06
20771 C 237.2134141097194 284.68632248004326 213.76165424494752 C 0.0 **** -0.24
20772 H 237.95975751411447 284.0613282235032 214.25071870513773 H 0.0 **** 0.06
20773 H 237.3623618696584 284.65147683562657 212.6816099385003 H 0.0 **** 0.06
20774 H 237.31618101143158 285.714254591863 214.1090184432827 H 0.0 **** 0.06
20775 H 236.2165033018925 284.3182862263229 214.00335138045307 H 0.0 **** 0.06
20776 C 49.900013876549195 26.272798143541195 36.76080648593393 C 0.0 **** -0.24
20777 H 49.3667019153209 27.035777567282736 37.32858822626173 H 0.0 **** 0.06
20778 H 49.18420923579683 25.5625490193776 36.34762221062579 H 0.0 **** 0.06
20779 H 50.59308808187535 25.74849091721873 37.41960648101906 H 0.0 **** 0.06
20780 H 50.455138786872595 26.744070006100458 35.95024895456072 H 0.0 **** 0.06
20781 C 309.16609969817625 63.47358517853567 263.64184277054164 C 0.0 **** -0.24
20782 H 309.3263619860877 63.59178096240581 264.71358952540436 H 0.0 **** 0.06
20783 H 310.12954559859645 63.4263348050294 263.13469215472156 H 0.0 **** 0.06
20784 H 308.5959267214554 64.32239494679888 263.26450988939126 H 0.0 **** 0.06
20785 H 308.6119893639139 62.55281653521507 263.45768469747213 H 0.0 **** 0.06
20786 C 106.92244916043623 160.1652976460225 2.2082867279663247 C 0.0 **** -0.24
20787 H 107.55186201691814 160.10013886671504 3.096640906301886 H 0.0 **** 0.06
20788 H 105.87560344983984 160.20750372349562 2.507667842170079 H 0.0 **** 0.06
20789 H 107.08707634527079 159.28822605218897 1.5817616584016463 H 0.0 **** 0.06
20790 H 107.17731408279238 161.06463943738186 1.6482139106598765 H 0.0 **** 0.06
20791 C 45.98683352379322 66.55036276937062 221.50037196687705 C 0.0 **** -0.24
20792 H 45.76575890972077 65.49889778147863 221.31566748320347 H 0.0 **** 0.06
20793 H 45.68176010219088 67.14250406168014 220.63708449957247 H 0.0 **** 0.06
20794 H 47.05668632090101 66.67271628270794 221.6667298831568 H 0.0 **** 0.06
20795 H 45.441203008943546 66.88596246994169 222.3826488707509 H 0.0 **** 0.06
20796 C 109.43010504385856 5.077234266600911 56.6106963024817 C 0.0 **** -0.24
20797 H 109.15171645004853 5.473877401692249 55.63398377196219 H 0.0 **** 0.06
20798 H 108.61801442396165 4.460592324896055 56.99633459458494 H 0.0 **** 0.06
20799 H 109.61788492685511 5.902622837783241 57.29699927457861 H 0.0 **** 0.06
20800 H 110.33158085378798 4.472618875414568 56.51376364237137 H 0.0 **** 0.06
20801 C 237.9877107149925 114.58769770306245 274.1008284681102 C 0.0 **** -0.24
20802 H 237.83716104904153 115.06934680876634 275.0672032861437 H 0.0 **** 0.06
20803 H 238.66011219684543 115.19451485539324 273.4941229857623 H 0.0 **** 0.06
20804 H 237.0285623950843 114.48709473602824 273.5913150722778 H 0.0 **** 0.06
20805 H 238.42431249314308 113.60025969690574 274.251252608674 H 0.0 **** 0.06
20806 C 176.88365524147497 70.36845311014545 147.71682330045684 C 0.0 **** -0.24
20807 H 175.99072121517094 70.54515402017202 148.31618709783234 H 0.0 **** 0.06
20808 H 177.70897721021169 70.08517494804912 148.37090317767996 H 0.0 **** 0.06
20809 H 177.1433838248122 71.27790044771001 147.1750180281005 H 0.0 **** 0.06
20810 H 176.69098479573097 69.56449965530541 147.00641757701788 H 0.0 **** 0.06
20811 C 76.12556106380703 161.35998532110608 138.28355312127084 C 0.0 **** -0.24
20812 H 75.21387601174436 161.93793244643916 138.13361035157834 H 0.0 **** 0.06
20813 H 76.94255631686212 162.03173405357006 138.5456842790499 H 0.0 **** 0.06
20814 H 76.37280514445683 160.82739953235216 137.36441325222754 H 0.0 **** 0.06
20815 H 75.97281465614049 160.64138756045622 139.08884632487178 H 0.0 **** 0.06
20816 C 185.34509071335157 172.97199597265018 226.20665750165415 C 0.0 **** -0.24
20817 H 185.93937288222406 172.61470567464556 225.36584379144801 H 0.0 **** 0.06
20818 H 185.30627449519477 174.06105080444922 226.1879699775672 H 0.0 **** 0.06
20819 H 185.8005838391823 172.64013332633056 227.14014909258674 H 0.0 **** 0.06
20820 H 184.3347468091648 172.57003779514042 226.13329424690028 H 0.0 **** 0.06
20821 C 161.77490901909914 129.2138310859924 167.19792172041605 C 0.0 **** -0.24
20822 H 161.175895838519 129.94103397965404 167.74612744018617 H 0.0 **** 0.06
20823 H 162.83145510039134 129.37598371600095 167.4141259251499 H 0.0 **** 0.06
20824 H 161.60010273903652 129.3313469465586 166.12837081567818 H 0.0 **** 0.06
20825 H 161.49228528187524 128.2062088449173 167.5037151065905 H 0.0 **** 0.06
20826 C 111.81477185978187 277.72273405970395 47.288518804274645 C 0.0 **** -0.24
20827 H 111.52784153035873 276.71499488149186 46.98813890371028 H 0.0 **** 0.06
20828 H 111.11892972629693 278.4418224854891 46.855734893657115 H 0.0 **** 0.06
20829 H 112.82295231328033 277.93430748589583 46.93339318584461 H 0.0 **** 0.06
20830 H 111.78838793200757 277.79912257218723 48.375204145285494 H 0.0 **** 0.06
20831 C 45.83009583906096 23.99704666704156 125.49558830719519 C 0.0 **** -0.24
20832 H 45.46681985690549 24.622493148742535 124.68067260273463 H 0.0 **** 0.06
20833 H 46.33455799039302 23.121748886888525 125.08440575520032 H 0.0 **** 0.06
20834 H 44.98857514370576 23.676532195128544 126.11023027215242 H 0.0 **** 0.06
20835 H 46.53028832996847 24.566442180698346 126.10724064053775 H 0.0 **** 0.06
20836 C 186.2772676230358 160.45004372257006 126.87500933665453 C 0.0 **** -0.24
20837 H 186.78732049391198 161.125646282501 127.56120653642378 H 0.0 **** 0.06
20838 H 185.21813559274074 160.70686993834613 126.83429087671291 H 0.0 **** 0.06
20839 H 186.38989498027678 159.42455058122403 127.2240898957387 H 0.0 **** 0.06
20840 H 186.71239508958428 160.5457987095068 125.88036798471654 H 0.0 **** 0.06
20841 C 139.8297224012087 166.04034403328848 237.03989122442286 C 0.0 **** -0.24
20842 H 140.49135956411337 166.58652047917047 237.71205928642615 H 0.0 **** 0.06
20843 H 140.4259349741165 165.44748135815337 236.3460073957051 H 0.0 **** 0.06
20844 H 139.21712957950808 166.74759559502263 236.4802488245442 H 0.0 **** 0.06
20845 H 139.1850011335675 165.38192309697484 237.620910760759 H 0.0 **** 0.06
20846 C 156.29245490362553 263.9791218222763 64.3071937107974 C 0.0 **** -0.24
20847 H 155.96194187244942 262.9744295932661 64.57065150802276 H 0.0 **** 0.06
20848 H 157.23559187466128 263.91982279773754 63.76428706320061 H 0.0 **** 0.06
20849 H 156.431334564424 264.56549356951245 65.21465553206824 H 0.0 **** 0.06
20850 H 155.54013574750786 264.4550869834262 63.67756889673157 H 0.0 **** 0.06
20851 C 135.9217768933539 199.1537878641546 308.4454676329261 C 0.0 **** -0.24
20852 H 136.59197183819973 198.44955047001378 308.9391180980223 H 0.0 **** 0.06
20853 H 135.5492067646107 199.8725061321768 309.17472677492026 H 0.0 **** 0.06
20854 H 135.08422274023744 198.61204576298115 308.00697261293334 H 0.0 **** 0.06
20855 H 136.46420792986444 199.6810880685021 307.65973394900095 H 0.0 **** 0.06
20856 C 126.19932309311633 302.33967220896415 258.9996039420317 C 0.0 **** -0.24
20857 H 125.12706695186634 302.148659024396 258.9578896738493 H 0.0 **** 0.06
20858 H 126.67475129542555 301.6007030613933 259.64484651259954 H 0.0 **** 0.06
20859 H 126.37506807762992 303.3384752786221 259.39881000073694 H 0.0 **** 0.06
20860 H 126.61961013544158 302.26980536676126 257.99634785503366 H 0.0 **** 0.06
20861 C 103.66913865586761 205.20696922254905 1.8302842203411274 C 0.0 **** -0.24
20862 H 103.63898022896629 204.72176488908542 2.8055824165255103 H 0.0 **** 0.06
20863 H 104.6745553352288 205.12901755526786 1.4167117504808857 H 0.0 **** 0.06
20864 H 103.40184713748215 206.25837182738542 1.9391885802640445 H 0.0 **** 0.06
20865 H 102.96050368662071 204.71926144750887 1.160167095604038 H 0.0 **** 0.06
20866 C 232.12276481254773 45.475387734083085 52.455375562228056 C 0.0 **** -0.24
20867 H 232.03491558655548 46.24898520511792 51.69319066883784 H 0.0 **** 0.06
20868 H 231.2869971716392 44.78049764950643 52.367071680381855 H 0.0 **** 0.06
20869 H 232.11086623301162 45.934661996578825 53.44306828713863 H 0.0 **** 0.06
20870 H 233.05979864155637 44.935572605961454 52.31759464156232 H 0.0 **** 0.06
20871 C 305.27993874270675 70.21390979392481 278.38110404133454 C 0.0 **** -0.24
20872 H 304.2236854971279 70.23069236878996 278.6523378569093 H 0.0 **** 0.06
20873 H 305.63730298425367 69.18367739201574 278.3762717122193 H 0.0 **** 0.06
20874 H 305.85003137073704 70.79393298100149 279.10742618184486 H 0.0 **** 0.06
20875 H 305.4068082981591 70.64747328079693 277.3895067615625 H 0.0 **** 0.06
20876 C 271.2956047212266 207.594122104873 112.15805810659262 C 0.0 **** -0.24
20877 H 271.71840330831003 208.28991912579767 111.43249197181277 H 0.0 **** 0.06
20878 H 270.3986806676874 207.13574982445664 111.74263008584884 H 0.0 **** 0.06
20879 H 271.04088592320807 208.1326701183877 113.07063671650735 H 0.0 **** 0.06
20880 H 272.027982441772 206.81935722823852 112.38670983740224 H 0.0 **** 0.06
20881 C 151.73807608495935 116.83392322030434 39.139315444724986 C 0.0 **** -0.24
20882 H 150.7138886232678 116.88166214930106 39.51099863468514 H 0.0 **** 0.06
20883 H 152.43075392944252 116.87614446883308 39.97930658496318 H 0.0 **** 0.06
20884 H 151.92114248095788 117.67719964689931 38.47328698175497 H 0.0 **** 0.06
20885 H 151.88255104933614 115.90166186674622 38.59421903231524 H 0.0 **** 0.06
20886 C 126.46961815301702 154.13726712622253 88.3335985942602 C 0.0 **** -0.24
20887 H 127.51109430328597 154.4353362840439 88.45298265526733 H 0.0 **** 0.06
20888 H 126.4113834250852 153.05516832152637 88.22214798999613 H 0.0 **** 0.06
20889 H 126.05428543823189 154.61770333476204 87.44722500516875 H 0.0 **** 0.06
20890 H 125.90135823107354 154.44325064763643 89.21244391588013 H 0.0 **** 0.06
20891 C 230.42686645450408 223.24706835931892 162.42417141138623 C 0.0 **** -0.24
20892 H 231.50209021592346 223.1980200716209 162.25173452744747 H 0.0 **** 0.06
20893 H 230.10451478233986 224.28861300727974 162.41450192707975 H 0.0 **** 0.06
20894 H 230.19321386624833 222.80263241746357 163.3914632546448 H 0.0 **** 0.06
20895 H 229.90712320395554 222.69838863393375 161.63782742254796 H 0.0 **** 0.06
20896 C 173.53195948484313 172.31400088998117 55.463991566549026 C 0.0 **** -0.24
20897 H 172.69025609748462 172.99782873001584 55.3593242934335 H 0.0 **** 0.06
20898 H 174.34027196157336 172.62946758827985 54.80418018987788 H 0.0 **** 0.06
20899 H 173.21583821017663 171.3055016896608 55.195859031817605 H 0.0 **** 0.06
20900 H 173.88048464244832 172.32317742346498 56.496760832154166 H 0.0 **** 0.06
20901 C 261.24813534085445 0.870006692541466 303.9199011420107 C 0.0 **** -0.24
20902 H 260.17213920368295 0.8597824339673252 303.7464649099423 H 0.0 **** 0.06
20903 H 261.7103038002096 0.04543913996363358 303.37638663435445 H 0.0 **** 0.06
20904 H 261.4450337448766 0.7590483869790461 304.98621423996553 H 0.0 **** 0.06
20905 H 261.66341888264765 1.8145123300941037 303.56967689033456 H 0.0 **** 0.06
20906 C 234.77575300554815 111.09827493372728 26.245477179727573 C 0.0 **** -0.24
20907 H 234.5581833356387 110.65944648858789 27.219434255886682 H 0.0 **** 0.06
20908 H 234.25949030656085 112.05479876170668 26.155114859243554 H 0.0 **** 0.06
20909 H 234.43549730001953 110.42476657936848 25.459013639219023 H 0.0 **** 0.06
20910 H 235.85039627316496 111.25554557149397 26.150234613985305 H 0.0 **** 0.06
20911 C 233.62376186609998 163.90615460381542 204.76808692219345 C 0.0 **** -0.24
20912 H 233.87787359423055 164.95152214607435 204.94579534900356 H 0.0 **** 0.06
20913 H 234.29796437054537 163.26735342401798 205.33818637272805 H 0.0 **** 0.06
20914 H 233.7226064045317 163.68376249482998 203.70570146668592 H 0.0 **** 0.06
20915 H 232.59687790266418 163.7240873898573 205.08388306192052 H 0.0 **** 0.06
20916 C 193.8963103772249 2.297152836173524 52.75319523523379 C 0.0 **** -0.24
20917 H 193.54723158294934 2.9788286463752343 51.976622996566675 H 0.0 **** 0.06
20918 H 194.76358867720893 2.72941706896691 53.252296761452016 H 0.0 **** 0.06
20919 H 194.17458554784974 1.3450706908116814 52.30110136371326 H 0.0 **** 0.06
20920 H 193.1001159607053 2.135512978083071 53.4796175336935 H 0.0 **** 0.06
20921 C 34.106523298236766 17.514218001820794 152.01475411248003 C 0.0 **** -0.24
20922 H 34.230635213783046 18.072145116189333 152.9428849855051 H 0.0 **** 0.06
20923 H 34.88357658680411 17.806292784191356 151.3080350308905 H 0.0 **** 0.06
20924 H 33.12685738167693 17.732118391664912 151.5889390540707 H 0.0 **** 0.06
20925 H 34.18383999846276 16.446129976332656 152.2204078312243 H 0.0 **** 0.06
20926 C 213.07438770891144 258.90111112000614 311.3275227734559 C 0.0 **** -0.24
20927 H 213.86994703072708 258.1722292379328 311.48040153239623 H 0.0 **** 0.06
20928 H 213.09431394790536 259.6340514418795 312.1354743745982 H 0.0 **** 0.06
20929 H 212.11088181689132 258.39144741423996 311.3233212165949 H 0.0 **** 0.06
20930 H 213.22238424821086 259.40736653999886 310.3736465635043 H 0.0 **** 0.06
20931 C 111.03176854842877 98.02209865837105 251.31898825918728 C 0.0 **** -0.24
20932 H 110.22811085633467 97.63102162285153 251.94305429487747 H 0.0 **** 0.06
20933 H 111.21312515988976 99.06701151026331 251.57481099218563 H 0.0 **** 0.06
20934 H 110.74541492156322 97.94849814518633 250.26960324064964 H 0.0 **** 0.06
20935 H 111.93936833433719 97.44319120983147 251.48994189195994 H 0.0 **** 0.06
20936 C 73.87055031316234 36.49488393431318 97.63274126524851 C 0.0 **** -0.24
20937 H 73.61255484638053 35.92734688042245 96.73796789348236 H 0.0 **** 0.06
20938 H 73.01235925343946 37.090845183779976 97.9443767047133 H 0.0 **** 0.06
20939 H 74.71176564509966 37.152241995421605 97.41514648065308 H 0.0 **** 0.06
20940 H 74.1446599922102 35.806053193935384 98.43175218171552 H 0.0 **** 0.06
20941 C 189.13507281933403 235.14307275557223 112.61906020891419 C 0.0 **** -0.24
20942 H 188.46146903305953 234.39036947690187 113.02705292613183 H 0.0 **** 0.06
20943 H 188.59361440537532 235.76945309365843 111.90897231619093 H 0.0 **** 0.06
20944 H 189.9649143675839 234.65101146433284 112.11179988099875 H 0.0 **** 0.06
20945 H 189.52063335398884 235.76258439777328 113.42919893300407 H 0.0 **** 0.06
20946 C 123.07879120544601 124.01696082688585 46.23668216280848 C 0.0 **** -0.24
20947 H 123.7553673431531 124.85015607753795 46.428324425349416 H 0.0 **** 0.06
20948 H 122.0686906727887 124.39690093213576 46.08709013265906 H 0.0 **** 0.06
20949 H 123.08963031763903 123.33717295375357 47.088288473405214 H 0.0 **** 0.06
20950 H 123.40490788307707 123.48489401792025 45.342260461752204 H 0.0 **** 0.06
20951 C 40.57948650502948 113.8324417771901 257.96071305244783 C 0.0 **** -0.24
20952 H 40.42512985981145 112.76233416780954 258.1022336669712 H 0.0 **** 0.06
20953 H 39.992083529961036 114.17420806496881 257.1076668017629 H 0.0 **** 0.06
20954 H 41.63565378284051 114.02497057324584 257.7745365503574 H 0.0 **** 0.06
20955 H 40.26491966822712 114.36682119662689 258.85702923007693 H 0.0 **** 0.06
20956 C 257.7000528951466 146.9068068226172 273.03612849314504 C 0.0 **** -0.24
20957 H 258.05486037939846 146.3867285046833 273.92542008663605 H 0.0 **** 0.06
20958 H 257.0552025171336 147.7333841090915 273.3322033539291 H 0.0 **** 0.06
20959 H 257.13853362531586 146.2131547948088 272.4102168984231 H 0.0 **** 0.06
20960 H 258.5527741277643 147.2920701540386 272.4763812123653 H 0.0 **** 0.06
20961 C 269.2662241908548 105.32383772938047 82.97120936696149 C 0.0 **** -0.24
20962 H 268.6785501607029 104.6198983388571 83.56093042069537 H 0.0 **** 0.06
20963 H 268.7001125771711 106.24612565731002 82.83738495641063 H 0.0 **** 0.06
20964 H 269.4864616730823 104.886741219524 81.99811305358685 H 0.0 **** 0.06
20965 H 270.1997926311679 105.54203510796754 83.49152295433265 H 0.0 **** 0.06
20966 C 104.88843638404876 309.2315333599855 212.54876525483988 C 0.0 **** -0.24
20967 H 104.80111569102331 309.1038625947981 213.62799628884395 H 0.0 **** 0.06
20968 H 105.23849483496798 310.2395053984582 212.32906820264583 H 0.0 **** 0.06
20969 H 103.91513227112088 309.07507173911944 212.0845829510734 H 0.0 **** 0.06
20970 H 105.59949024011655 308.50544386957137 212.1542505945717 H 0.0 **** 0.06
20971 C 98.95178851550418 127.23454450176371 51.417399003884725 C 0.0 **** -0.24
20972 H 99.75706692662814 127.93900637956264 51.21167470156843 H 0.0 **** 0.06
20973 H 99.20105065228122 126.64451731773474 52.29940731431452 H 0.0 **** 0.06
20974 H 98.82158701346717 126.57107626154661 50.561827956149045 H 0.0 **** 0.06
20975 H 98.02689428290768 127.78212587362432 51.59592251867355 H 0.0 **** 0.06
20976 C 85.26532640514824 21.20632656906548 282.7463649069802 C 0.0 **** -0.24
20977 H 84.8926759195123 21.968959873251663 283.4296279641904 H 0.0 **** 0.06
20978 H 84.48359721879493 20.946360238032554 282.03264483876706 H 0.0 **** 0.06
20979 H 85.5503759344223 20.319945749819055 283.3124683921304 H 0.0 **** 0.06
20980 H 86.13322818912494 21.590613443513746 282.2119957142546 H 0.0 **** 0.06
20981 C 123.08739044771994 290.1520310567214 38.66656236019679 C 0.0 **** -0.24
20982 H 123.23193818222197 291.2118729685488 38.877703135969455 H 0.0 **** 0.06
20983 H 123.97862693337288 289.5980136134156 38.96194778780324 H 0.0 **** 0.06
20984 H 122.91004152987489 290.01538871011627 37.59998907223516 H 0.0 **** 0.06
20985 H 122.22785947038508 289.7843309762124 39.22822285003656 H 0.0 **** 0.06
20986 C 89.63798636757417 26.00039071955686 265.3504853613821 C 0.0 **** -0.24
20987 H 90.69658750605677 26.24640074131395 265.2662473092953 H 0.0 **** 0.06
20988 H 89.48540961176658 24.957405567805353 265.0745892708614 H 0.0 **** 0.06
20989 H 89.0620994735308 26.642228799762393 264.6836116739427 H 0.0 **** 0.06
20990 H 89.30943606090898 26.156979831037546 266.3781034313512 H 0.0 **** 0.06
20991 C 292.87614938393216 138.69408387915368 250.5615894906732 C 0.0 **** -0.24
20992 H 292.10409327793457 138.27704788148287 249.91492288718098 H 0.0 **** 0.06
20993 H 292.4340583197881 139.44709346003785 251.21493045642939 H 0.0 **** 0.06
20994 H 293.65203167953666 139.15378296167552 249.94954311497608 H 0.0 **** 0.06
20995 H 293.31231611797494 137.89945105325052 251.16624277842345 H 0.0 **** 0.06
20996 C 137.5494598532147 130.00953398281538 152.7056440180604 C 0.0 **** -0.24
20997 H 137.22867873679945 131.00609153008128 152.40358628100466 H 0.0 **** 0.06
20998 H 137.72921440262087 129.99537855820574 153.78042272731972 H 0.0 **** 0.06
20999 H 138.46841322291993 129.7497587413727 152.17961846668578 H 0.0 **** 0.06
21000 H 136.77239446016716 129.28681704177967 152.45744863851377 H 0.0 **** 0.06
21001 C 210.14405679520456 93.30471100003354 67.73479466258772 C 0.0 **** -0.24
21002 H 210.7324171109299 93.92297171524038 67.05585638662558 H 0.0 **** 0.06
21003 H 209.67010225927464 92.49944698331225 67.173277688262 H 0.0 **** 0.06
21004 H 209.37768465975486 93.9162572203972 68.2106594740363 H 0.0 **** 0.06
21005 H 210.79731454008657 92.88091047858796 68.49744057398439 H 0.0 **** 0.06
21006 C 270.36601595459905 74.31799885653837 111.25278653336645 C 0.0 **** -0.24
21007 H 270.12885482198203 74.17489864222284 110.1987337480684 H 0.0 **** 0.06
21008 H 270.93769793765864 75.23881182045125 111.37379707563699 H 0.0 **** 0.06
21009 H 270.9568529925537 73.47427144453346 111.61051129136669 H 0.0 **** 0.06
21010 H 269.44302557208107 74.38438680450918 111.8275984485986 H 0.0 **** 0.06
21011 C 162.81816654065221 60.78154131199187 264.19080334646435 C 0.0 **** -0.24
21012 H 162.7823064695695 59.812364186178286 263.6943800400039 H 0.0 **** 0.06
21013 H 161.89375097771335 61.32506249479354 263.99506131838325 H 0.0 **** 0.06
21014 H 163.6644484614904 61.353506172674315 263.80884462667603 H 0.0 **** 0.06
21015 H 162.93412564309767 60.63628747197947 265.2647722276689 H 0.0 **** 0.06
21016 C 17.583512396794575 224.87983979801197 135.81045855401587 C 0.0 **** -0.24
21017 H 17.46419325790565 225.43919960747567 134.88244082915782 H 0.0 **** 0.06
21018 H 18.44249911774459 225.267473967431 136.35938470559483 H 0.0 **** 0.06
21019 H 17.74452060317003 223.82635713978303 135.5821057670939 H 0.0 **** 0.06
21020 H 16.685106274297482 224.9872390710121 136.41776340529768 H 0.0 **** 0.06
21021 C 50.36765833955184 10.42378399091588 94.22626413396043 C 0.0 **** -0.24
21022 H 49.611488324372345 10.869498726916646 93.57997578315965 H 0.0 **** 0.06
21023 H 50.081734699268225 9.399080409431761 94.46599022156224 H 0.0 **** 0.06
21024 H 50.44730525497869 11.003958471039425 95.14424522325831 H 0.0 **** 0.06
21025 H 51.32832524399811 10.421527156821867 93.7120731659029 H 0.0 **** 0.06
21026 C 54.839996862518376 188.67008491414924 22.515701281041345 C 0.0 **** -0.24
21027 H 53.93220757442094 188.39279234570876 21.980855709847248 H 0.0 **** 0.06
21028 H 54.627052738779525 188.734833886675 23.582984618794256 H 0.0 **** 0.06
21029 H 55.19353410629418 189.63692157951118 22.156232737681705 H 0.0 **** 0.06
21030 H 55.60736541535741 187.91527390942508 22.34356993076824 H 0.0 **** 0.06
21031 C 68.26288276501299 278.2584294517605 173.40045549348395 C 0.0 **** -0.24
21032 H 68.04086137095047 277.4671505633919 172.68491753626182 H 0.0 **** 0.06
21033 H 67.44363949653768 278.3396288960853 174.11648166465034 H 0.0 **** 0.06
21034 H 68.37770687475361 279.2047167549333 172.8717626583914 H 0.0 **** 0.06
21035 H 69.18559589214902 278.0223066156992 173.92897496707536 H 0.0 **** 0.06
21036 C 193.6032341371507 206.02015003449463 117.45899700445037 C 0.0 **** -0.24
21037 H 193.9319970338738 205.11124029466475 116.95559617973527 H 0.0 **** 0.06
21038 H 193.96097563822173 206.01479572801378 118.48893472237455 H 0.0 **** 0.06
21039 H 192.51355332199932 206.06491155087218 117.45225283904279 H 0.0 **** 0.06
21040 H 194.00510526506213 206.88910830326927 116.93920140265146 H 0.0 **** 0.06
21041 C 200.8969368300983 111.15558613507284 93.20239932355724 C 0.0 **** -0.24
21042 H 201.03800076805152 110.91143597228015 94.25558307583847 H 0.0 **** 0.06
21043 H 199.97131895962212 111.71870602886807 93.08165623025639 H 0.0 **** 0.06
21044 H 200.84353439819245 110.23667555474589 92.61983355993326 H 0.0 **** 0.06
21045 H 201.7362804645354 111.75779497823007 92.85495994548407 H 0.0 **** 0.06
21046 C 9.405019489578635 70.6100368557756 123.94203552425824 C 0.0 **** -0.24
21047 H 9.653211473635409 71.56604169714313 124.40222660278047 H 0.0 **** 0.06
21048 H 10.234042119478772 69.91525682782594 124.07793454359157 H 0.0 **** 0.06
21049 H 9.224644829562038 70.75680885101255 122.87655426262333 H 0.0 **** 0.06
21050 H 8.509140474823383 70.20312254264161 124.40945062469152 H 0.0 **** 0.06
21051 C 109.52069721747736 181.31907224989976 128.26562241287743 C 0.0 **** -0.24
21052 H 108.58851393840865 181.28277843089916 127.70138536577963 H 0.0 **** 0.06
21053 H 110.28994939405243 181.80418536522382 127.66549017724634 H 0.0 **** 0.06
21054 H 109.83610117400696 180.30491895689357 128.51108481945607 H 0.0 **** 0.06
21055 H 109.36651474992115 181.88426704177562 129.18476982414342 H 0.0 **** 0.06
21056 C 64.24848577334356 134.39349191209632 23.002345926229964 C 0.0 **** -0.24
21057 H 63.58419499911162 134.47474280376386 22.141696513250793 H 0.0 **** 0.06
21058 H 64.97749376848233 135.20371801260148 22.975136340914105 H 0.0 **** 0.06
21059 H 64.76747197261699 133.43605914885785 22.97209409082558 H 0.0 **** 0.06
21060 H 63.66464209094724 134.46139309212495 23.92001434780309 H 0.0 **** 0.06
21061 C 110.67619014797864 177.23129191986067 262.6017423352219 C 0.0 **** -0.24
21062 H 111.06443595622216 178.1807270423978 262.9693596455077 H 0.0 **** 0.06
21063 H 110.14165317335429 177.39647151848033 261.6659339810048 H 0.0 **** 0.06
21064 H 109.99652254221743 176.80650890539528 263.3395673010922 H 0.0 **** 0.06
21065 H 111.50330473638391 176.5423247301312 262.4301293412262 H 0.0 **** 0.06
21066 C 134.46784246418562 23.941858671732774 207.45368772325554 C 0.0 **** -0.24
21067 H 134.6699837874576 23.00296353716169 207.96977508454037 H 0.0 **** 0.06
21068 H 134.33418310232963 24.736730269592044 208.18730456251268 H 0.0 **** 0.06
21069 H 133.5607733235869 23.840711392996752 206.8582297904461 H 0.0 **** 0.06
21070 H 135.30565929594033 24.18577875637149 206.8018585350224 H 0.0 **** 0.06
21071 C 104.27531659071877 109.81155527022923 58.83988083758365 C 0.0 **** -0.24
21072 H 105.29161954942364 110.18449138843098 58.71184061377815 H 0.0 **** 0.06
21073 H 103.91723403605545 109.40014939644271 57.895719069304846 H 0.0 **** 0.06
21074 H 103.62469018880418 110.628986788253 59.15040031788007 H 0.0 **** 0.06
21075 H 104.26804752547923 109.03229800333003 59.60246173550013 H 0.0 **** 0.06
21076 C 193.0889989505298 191.3562659441131 55.134358141907455 C 0.0 **** -0.24
21077 H 193.37549304719323 191.01738809751595 54.13859848757886 H 0.0 **** 0.06
21078 H 192.10078808406303 191.81582948695836 55.09041510405012 H 0.0 **** 0.06
21079 H 193.81467816556278 192.08590065505973 55.4931229862442 H 0.0 **** 0.06
21080 H 193.06409029958292 190.50443855315962 55.81394184160848 H 0.0 **** 0.06
21081 C 198.23220271378273 51.16828780503343 268.89138088228975 C 0.0 **** -0.24
21082 H 198.3773788628402 50.15126666148731 268.5260451014521 H 0.0 **** 0.06
21083 H 199.18359000402506 51.69912079315637 268.8779306732289 H 0.0 **** 0.06
21084 H 197.84754654192255 51.136285716783874 269.9109954408225 H 0.0 **** 0.06
21085 H 197.51755733811729 51.68525598498718 268.25064908212835 H 0.0 **** 0.06
21086 C 165.85174119461675 159.53298937767278 178.44564949446357 C 0.0 **** -0.24
21087 H 166.09825498590516 159.7763473500729 177.41223031658035 H 0.0 **** 0.06
21088 H 164.82581973585582 159.83524427474555 178.65613343191143 H 0.0 **** 0.06
21089 H 166.5311690939987 160.06141442166228 179.11471156494343 H 0.0 **** 0.06
21090 H 165.9530657395594 158.4588929898996 178.5999564442929 H 0.0 **** 0.06
21091 C 193.82222900201077 145.92201804634806 119.57586860792108 C 0.0 **** -0.24
21092 H 194.10281970190454 145.56927961959116 120.56728113666028 H 0.0 **** 0.06
21093 H 193.60890097257925 145.06847727015648 118.93257579425426 H 0.0 **** 0.06
21094 H 194.64276891234977 146.50106725845288 119.15013791461408 H 0.0 **** 0.06
21095 H 192.93532697566474 146.55151108335988 119.65172811128002 H 0.0 **** 0.06
21096 C 179.5666811729322 244.3006070607769 111.27772102616177 C 0.0 **** -0.24
21097 H 179.62577267885894 244.1312383918598 110.20261647426008 H 0.0 **** 0.06
21098 H 178.75263270619018 244.9941173397179 111.49135375305221 H 0.0 **** 0.06
21099 H 180.50644461733305 244.72374440436155 111.63114117624929 H 0.0 **** 0.06
21100 H 179.38085471373284 243.3539190213214 111.78450365273329 H 0.0 **** 0.06
21101 C 29.96305019949841 5.9313590418832405 275.3624983260336 C 0.0 **** -0.24
21102 H 30.870426501885305 6.533233416840005 275.4018661837231 H 0.0 **** 0.06
21103 H 30.223525937276946 4.8986301870138504 275.129052709751 H 0.0 **** 0.06
21104 H 29.300977985543454 6.3229299160931305 274.59002503511607 H 0.0 **** 0.06
21105 H 29.458945241206038 5.969551037215069 276.32763402001547 H 0.0 **** 0.06
21106 C 258.25817376795624 246.73038127175192 113.18014499985233 C 0.0 **** -0.24
21107 H 257.8991005725231 247.42011706322006 112.41613889421237 H 0.0 **** 0.06
21108 H 258.38494676524465 245.73976087015103 112.74363362965548 H 0.0 **** 0.06
21109 H 257.5331249697896 246.68078192145683 113.99284389678064 H 0.0 **** 0.06
21110 H 259.21405702514454 247.08236459903276 113.56718670658495 H 0.0 **** 0.06
21111 C 169.3261815005814 246.90502386142126 211.1482476631611 C 0.0 **** -0.24
21112 H 169.90925998722798 246.16986997457053 211.70356612511503 H 0.0 **** 0.06
21113 H 168.85777918257008 246.4239811062142 210.2895297312872 H 0.0 **** 0.06
21114 H 169.9830761667755 247.70355214219862 210.8042995139217 H 0.0 **** 0.06
21115 H 168.55622954812776 247.3214979089498 211.79657142628037 H 0.0 **** 0.06
21116 C 284.2004374171031 35.12893929101952 82.03284387834833 C 0.0 **** -0.24
21117 H 285.05594505137765 35.68321513126057 82.4203130199837 H 0.0 **** 0.06
21118 H 284.1787137056049 35.20844370056571 80.94517182901004 H 0.0 **** 0.06
21119 H 283.28189556594714 35.544210746870164 82.44664676913001 H 0.0 **** 0.06
21120 H 284.28745022124275 34.08083676911036 82.31936477774912 H 0.0 **** 0.06
21121 C 129.74289149259448 223.46881691890326 38.891753082749574 C 0.0 **** -0.24
21122 H 130.7188944454847 222.9979226237141 39.010024590688204 H 0.0 **** 0.06
21123 H 128.96442963898394 222.78155290203654 39.22437398925962 H 0.0 **** 0.06
21124 H 129.58427066681867 223.71887213035438 37.84278684191088 H 0.0 **** 0.06
21125 H 129.7040498509436 224.37843417510192 39.49113119740582 H 0.0 **** 0.06
21126 C 138.38997096553624 31.218797832665302 61.38068963246772 C 0.0 **** -0.24
21127 H 138.54777956287046 31.82911768921835 60.491666872532505 H 0.0 **** 0.06
21128 H 137.3543601944489 30.878540058820306 61.409678123343724 H 0.0 **** 0.06
21129 H 138.60219705649317 31.812907773459244 62.270296748212786 H 0.0 **** 0.06
21130 H 139.05563855175458 30.35674418545821 61.35234321801187 H 0.0 **** 0.06
21131 C 264.4180393883164 184.32988812557778 23.783024470438193 C 0.0 **** -0.24
21132 H 263.6743801533005 184.52319533163893 24.55670245262968 H 0.0 **** 0.06
21133 H 265.3599072621012 184.80530725726913 24.05844398955665 H 0.0 **** 0.06
21134 H 264.0690517898858 184.73624241602715 22.83431471946028 H 0.0 **** 0.06
21135 H 264.56850834505605 183.2553132094755 23.685013310200873 H 0.0 **** 0.06
21136 C 70.4880304134496 142.93391265972255 246.3188033999371 C 0.0 **** -0.24
21137 H 70.17812552558155 142.82914180790735 247.35856172718672 H 0.0 **** 0.06
21138 H 71.36296886368919 143.5815265994413 246.26474563315995 H 0.0 **** 0.06
21139 H 69.67442076021959 143.37084824819775 245.74014463009854 H 0.0 **** 0.06
21140 H 70.73573195212097 141.95299410124773 245.91347504147112 H 0.0 **** 0.06
21141 C 291.38936504793503 312.8554816024848 76.30366924938804 C 0.0 **** -0.24
21142 H 290.4480848092926 313.25909784217646 76.67875963864938 H 0.0 **** 0.06
21143 H 291.2467357476255 312.4864650766709 75.28829836465053 H 0.0 **** 0.06
21144 H 291.71374672952237 312.03667788982347 76.94592181259367 H 0.0 **** 0.06
21145 H 292.1461906207436 313.6392927184003 76.30293949472579 H 0.0 **** 0.06
21146 C 166.6755617403578 117.52435760735762 51.44437597950997 C 0.0 **** -0.24
21147 H 166.03359402239892 117.54517964334133 50.563847024342124 H 0.0 **** 0.06
21148 H 166.06740328918949 117.34437143964206 52.33149977739214 H 0.0 **** 0.06
21149 H 167.1880143973862 118.48048021293707 51.542381997717456 H 0.0 **** 0.06
21150 H 167.410391046791 116.7265434987948 51.33935271606464 H 0.0 **** 0.06
21151 C 311.7662628804552 53.738327939257005 304.4982608598076 C 0.0 **** -0.24
21152 H 311.4935034407567 53.50728787719734 303.46818798326706 H 0.0 **** 0.06
21153 H 312.1440365463412 54.759990315167016 304.55328270458034 H 0.0 **** 0.06
21154 H 312.53817512379095 53.045620487293434 304.83307756061055 H 0.0 **** 0.06
21155 H 310.88854973924936 53.6398955237606 305.1374400628508 H 0.0 **** 0.06
21156 C 9.884938031064948 114.41386427434762 260.8861279671532 C 0.0 **** -0.24
21157 H 10.55304152884976 114.94923446665206 260.21037665917845 H 0.0 **** 0.06
21158 H 9.154522736073218 113.85208509006915 260.30369170803186 H 0.0 **** 0.06
21159 H 9.368413174619661 115.1270735707983 261.52778669106283 H 0.0 **** 0.06
21160 H 10.465745734293435 113.72677455438463 261.5012315983339 H 0.0 **** 0.06
21161 C 244.26897606350389 94.84425872300048 103.88980909390938 C 0.0 **** -0.24
21162 H 244.373324627886 94.90267558168921 104.97237326721077 H 0.0 **** 0.06
21163 H 245.05539464003658 94.20852667975817 103.48284110720095 H 0.0 **** 0.06
21164 H 244.35081458591225 95.84346861848584 103.46188691458937 H 0.0 **** 0.06
21165 H 243.29497025964145 94.42154187294355 103.64153200518425 H 0.0 **** 0.06
21166 C 52.02308774729377 86.46572723003078 30.723816296507522 C 0.0 **** -0.24
21167 H 52.17497740839991 86.0913411661507 31.736041051567042 H 0.0 **** 0.06
21168 H 51.02740116795192 86.18422661365614 30.378416532619696 H 0.0 **** 0.06
21169 H 52.77333769858953 86.03446661293526 30.060874638599756 H 0.0 **** 0.06
21170 H 52.115817376148726 87.55175995048404 30.719633487365314 H 0.0 **** 0.06
21171 C 256.23787355473775 231.99961624145158 220.93347845741962 C 0.0 **** -0.24
21172 H 255.7796477879694 231.3727486712477 220.168848125988 H 0.0 **** 0.06
21173 H 257.31392419537156 231.8280019598713 220.94810393534388 H 0.0 **** 0.06
21174 H 255.816520476399 231.7503556354759 221.90758578500697 H 0.0 **** 0.06
21175 H 256.0399009654742 233.0489352859277 220.70988785734815 H 0.0 **** 0.06
21176 C 180.457011822815 85.89837006234208 224.93445624760005 C 0.0 **** -0.24
21177 H 180.45751933711682 86.98478266845868 225.0222215092899 H 0.0 **** 0.06
21178 H 179.97662936903038 85.46264474994612 225.80989927562655 H 0.0 **** 0.06
21179 H 181.48486106901424 85.54090013344683 224.8674299103368 H 0.0 **** 0.06
21180 H 179.91264230670475 85.60657291292378 224.03686413578208 H 0.0 **** 0.06
21181 C 163.17113727198324 283.1231283882571 71.15037844752271 C 0.0 **** -0.24
21182 H 163.1404445885123 283.84300983021166 70.3316947329177 H 0.0 **** 0.06
21183 H 162.37293143608525 283.3448949221061 71.85879668433304 H 0.0 **** 0.06
21184 H 164.1345805354378 283.1893397252638 71.65533833166745 H 0.0 **** 0.06
21185 H 163.03612403649976 282.1169156552247 70.75393209429467 H 0.0 **** 0.06
21186 C 218.65415409776745 142.6525971150612 18.76216386764827 C 0.0 **** -0.24
21187 H 218.09206058550757 141.7202636956331 18.80638630704999 H 0.0 **** 0.06
21188 H 218.7699575254374 143.05450410484607 19.769093701845946 H 0.0 **** 0.06
21189 H 218.1177931695935 143.37176665823887 18.14417481680438 H 0.0 **** 0.06
21190 H 219.6375205116995 142.46399161371713 18.331339296442522 H 0.0 **** 0.06
21191 C 82.19380866141537 169.08850200776413 99.50246760081123 C 0.0 **** -0.24
21192 H 82.50724104397096 168.55803282061555 100.40115159935908 H 0.0 **** 0.06
21193 H 82.27057060223427 168.42329082637565 98.64264201575395 H 0.0 **** 0.06
21194 H 82.83675522975008 169.9556065900673 99.35010059258656 H 0.0 **** 0.06
21195 H 81.16107637065684 169.4174300896285 99.61728346065144 H 0.0 **** 0.06
21196 C 282.0222152860987 247.74215296960722 140.20234937030847 C 0.0 **** -0.24
21197 H 282.2879887697923 247.49890987414716 141.2308860006538 H 0.0 **** 0.06
21198 H 280.9540582176752 247.5813067413298 140.05511038157238 H 0.0 **** 0.06
21199 H 282.5840172887469 247.10359968608572 139.52023312922418 H 0.0 **** 0.06
21200 H 282.2632163880067 248.78697883528315 140.00292836946022 H 0.0 **** 0.06
21201 C 12.226119942694055 199.00855483275006 175.16948573792445 C 0.0 **** -0.24
21202 H 12.166902151153735 200.08435190138766 175.00281158703075 H 0.0 **** 0.06
21203 H 11.243565849040948 198.56255204421944 175.014410540499 H 0.0 **** 0.06
21204 H 12.554843088029784 198.81795190338568 176.19203450228667 H 0.0 **** 0.06
21205 H 12.939203616036139 198.57146989090285 174.47082217340795 H 0.0 **** 0.06
21206 C 184.06232689693758 289.1107862913202 68.25463343616977 C 0.0 **** -0.24
21207 H 184.27262527658365 289.2019019182184 67.18951565909293 H 0.0 **** 0.06
21208 H 183.00103392017598 288.90250204901827 68.39921992658122 H 0.0 **** 0.06
21209 H 184.32119153853034 290.0424141403658 68.75688535909865 H 0.0 **** 0.06
21210 H 184.65230996702502 288.2952156469713 68.673307358122 H 0.0 **** 0.06
21211 C 230.91963161515292 37.49923034129773 142.2431248252504 C 0.0 **** -0.24
21212 H 230.7617458565511 36.88398091606285 143.12946256347809 H 0.0 **** 0.06
21213 H 230.0300515414047 38.09999861498278 142.0555851742147 H 0.0 **** 0.06
21214 H 231.11271875444226 36.85563661965389 141.38440843924946 H 0.0 **** 0.06
21215 H 231.77511348884565 38.15498788743753 142.40489056359772 H 0.0 **** 0.06
21216 C 215.70773518595615 266.7589913228209 116.76214346785113 C 0.0 **** -0.24
21217 H 216.17025831122527 267.02613522942886 117.7121796990622 H 0.0 **** 0.06
21218 H 214.62361688888836 266.8263104491107 116.8539421818968 H 0.0 **** 0.06
21219 H 215.98798086285035 265.73880810773767 116.4968513169294 H 0.0 **** 0.06
21220 H 216.051377441363 267.44320824898267 115.98681866823361 H 0.0 **** 0.06
21221 C 125.7124821162879 268.7384003016762 227.1658657003154 C 0.0 **** -0.24
21222 H 125.28535581384196 268.05802906118754 226.4298246401192 H 0.0 **** 0.06
21223 H 124.97581950604379 269.4982797430167 227.42814949078883 H 0.0 **** 0.06
21224 H 126.59665142263987 269.2181808545879 226.7479188112991 H 0.0 **** 0.06
21225 H 125.99105197162828 268.17826064019005 228.05935143178817 H 0.0 **** 0.06
21226 C 133.90472593543961 107.51052857470279 50.832202659492566 C 0.0 **** -0.24
21227 H 133.00339218366744 107.9291919995737 50.385017292419434 H 0.0 **** 0.06
21228 H 134.46421475527947 108.30265100766042 51.331510850131764 H 0.0 **** 0.06
21229 H 134.52233879149298 107.06399888861722 50.054099876301706 H 0.0 **** 0.06
21230 H 133.6284833331925 106.74771389319568 51.56056942086889 H 0.0 **** 0.06
21231 C 34.84864431388419 127.67038584590793 162.26226921407073 C 0.0 **** -0.24
21232 H 34.83640157726842 126.73617182634283 161.70186076850615 H 0.0 **** 0.06
21233 H 35.063122995778684 127.46301800695105 163.31064549398582 H 0.0 **** 0.06
21234 H 33.87696396733159 128.1567755845121 162.17957898567693 H 0.0 **** 0.06
21235 H 35.618785704152515 128.32680659777876 161.85692320583712 H 0.0 **** 0.06
21236 C 138.9632575724857 278.51087399903895 2.281555016840457 C 0.0 **** -0.24
21237 H 139.57741368879582 278.3445254670019 3.1668316870145077 H 0.0 **** 0.06
21238 H 138.06952829924114 277.8889036967877 2.3377269149764572 H 0.0 **** 0.06
21239 H 139.5323238245217 278.24774583095194 1.3898187785768954 H 0.0 **** 0.06
21240 H 138.67327793713213 279.56025538284644 2.231138044309759 H 0.0 **** 0.06
21241 C 121.17535185327762 67.33525691777149 189.31569453803263 C 0.0 **** -0.24
21242 H 121.86300155678487 67.1906022916611 188.48201157817414 H 0.0 **** 0.06
21243 H 120.1489968755346 67.24410562641708 188.95943865517654 H 0.0 **** 0.06
21244 H 121.32575861664401 68.3259652536232 189.7428586071655 H 0.0 **** 0.06
21245 H 121.36410400708257 66.57834863294042 190.07759139908455 H 0.0 **** 0.06
21246 C 156.6265406746615 194.1833146950445 36.03906907775638 C 0.0 **** -0.24
21247 H 156.22974735900993 194.60518111337655 36.96295118257575 H 0.0 **** 0.06
21248 H 157.09611409951282 194.97319255936895 35.45143984488635 H 0.0 **** 0.06
21249 H 155.81430240087133 193.73690362250534 35.4657127406804 H 0.0 **** 0.06
21250 H 157.36610676075935 193.41840925348941 36.27751618569695 H 0.0 **** 0.06
21251 C 32.51316149755755 214.5752987112193 85.6210478438419 C 0.0 **** -0.24
21252 H 31.64524119771724 213.98007936191533 85.33520062138822 H 0.0 **** 0.06
21253 H 33.11525678419349 214.7866327921821 84.73654712119139 H 0.0 **** 0.06
21254 H 33.111135742609235 214.02210929208616 86.34495848519569 H 0.0 **** 0.06
21255 H 32.179509895733446 215.51297419629424 86.06564613869779 H 0.0 **** 0.06
21256 C 157.79668677986882 159.22232908281376 301.1081402902811 C 0.0 **** -0.24
21257 H 157.6646078620916 159.92526516063208 301.93051938709766 H 0.0 **** 0.06
21258 H 157.98119933371152 158.22521760744576 301.5084691239576 H 0.0 **** 0.06
21259 H 158.64499158330887 159.53257238349414 300.49810799246836 H 0.0 **** 0.06
21260 H 156.89549038939396 159.20793089530554 300.49551307410053 H 0.0 **** 0.06
21261 C 74.65135482956424 124.22481267095071 241.04062985898867 C 0.0 **** -0.24
21262 H 73.89786394346692 124.26592638804294 240.25304335319305 H 0.0 **** 0.06
21263 H 75.63903714967435 124.37965558733771 240.6050501753819 H 0.0 **** 0.06
21264 H 74.61588035556915 123.2500876940249 241.52576502025104 H 0.0 **** 0.06
21265 H 74.45152671532941 125.00441061320979 241.77452843172392 H 0.0 **** 0.06
21266 C 75.76769199933597 181.56785397507844 141.08217718533567 C 0.0 **** -0.24
21267 H 76.65577626589538 181.92923193630156 140.56161819316426 H 0.0 **** 0.06
21268 H 74.92621573615372 182.22446648214833 140.86155519397172 H 0.0 **** 0.06
21269 H 75.95280530989015 181.56231239770955 142.15569509248706 H 0.0 **** 0.06
21270 H 75.537596720686 180.55704424820732 140.7470709280436 H 0.0 **** 0.06
21271 C 80.0414162796406 4.5434718273160115 58.630875602820765 C 0.0 **** -0.24
21272 H 79.54116513134377 3.576023384055702 58.58960033974779 H 0.0 **** 0.06
21273 H 81.06900858072262 4.406391266055621 58.9680007038134 H 0.0 **** 0.06
21274 H 79.51403757636527 5.195391637234138 59.327946344503516 H 0.0 **** 0.06
21275 H 80.04068915176418 4.995428248978811 57.6389495902049 H 0.0 **** 0.06
21276 C 150.04100701006683 89.2606316524436 59.43861356938601 C 0.0 **** -0.24
21277 H 149.0748480999132 89.73853013322716 59.599723317705354 H 0.0 **** 0.06
21278 H 150.77167818374284 90.01283095344888 59.13719656849358 H 0.0 **** 0.06
21279 H 149.9490973773776 88.5097183007434 58.65452230992537 H 0.0 **** 0.06
21280 H 150.36987635565606 88.78476217631419 60.3620931534019 H 0.0 **** 0.06
21281 C 107.74110160631838 68.22810942632444 253.55569909191502 C 0.0 **** -0.24
21282 H 106.93842385899381 68.88631722981145 253.88629743668554 H 0.0 **** 0.06
21283 H 108.23942994139881 68.66950433723554 252.69231519397317 H 0.0 **** 0.06
21284 H 107.32498766040612 67.25943004044234 253.27872295252078 H 0.0 **** 0.06
21285 H 108.46117856171404 68.09820465533406 254.36350802848239 H 0.0 **** 0.06
21286 C 31.61164654803133 304.09209320667213 62.78827524178624 C 0.0 **** -0.24
21287 H 30.598274509415035 304.4899468726578 62.825449358504926 H 0.0 **** 0.06
21288 H 32.325854943623 304.9156275644894 62.784828496021305 H 0.0 **** 0.06
21289 H 31.736117331780804 303.4987690361658 61.88250054465664 H 0.0 **** 0.06
21290 H 31.787368066150208 303.46272523569314 63.6608136398128 H 0.0 **** 0.06
21291 C 91.02098005436585 151.96717191738264 49.87535233198511 C 0.0 **** -0.24
21292 H 89.95146354561166 151.7602705559433 49.91057467192647 H 0.0 **** 0.06
21293 H 91.57526824539639 151.03303631205677 49.96767038699451 H 0.0 **** 0.06
21294 H 91.28906378990098 152.63193014621805 50.696978135624335 H 0.0 **** 0.06
21295 H 91.2679096237157 152.4444689469774 48.92714366176054 H 0.0 **** 0.06
21296 C 20.93161008170398 35.88630522218662 32.29551373225877 C 0.0 **** -0.24
21297 H 21.0056016655021 35.59112342788501 33.34298273486357 H 0.0 **** 0.06
21298 H 20.24093068137394 36.72542277357857 32.20319873920121 H 0.0 **** 0.06
21299 H 20.564209510700366 35.04617198767852 31.70715048257307 H 0.0 **** 0.06
21300 H 21.91534413278282 36.18368759791784 31.93225433540664 H 0.0 **** 0.06
21301 C 174.05032262437095 70.19613490637829 91.0590364766114 C 0.0 **** -0.24
21302 H 175.05688730472474 69.95350466283017 90.7179185197746 H 0.0 **** 0.06
21303 H 173.39004206267634 70.30193599620264 90.19770142942932 H 0.0 **** 0.06
21304 H 174.07185605853323 71.1320089544202 91.61758587304104 H 0.0 **** 0.06
21305 H 173.68250507154954 69.3970900120602 91.70294008420063 H 0.0 **** 0.06
21306 C 4.635079011951049 140.6327449959258 91.90516094909069 C 0.0 **** -0.24
21307 H 4.918215777087298 140.3809147878796 92.92701292808354 H 0.0 **** 0.06
21308 H 3.857913059673308 141.39777367028043 91.92269852461476 H 0.0 **** 0.06
21309 H 4.257556819063694 139.7418673176594 91.40331206157873 H 0.0 **** 0.06
21310 H 5.5061504431768356 141.01010689243017 91.37000124556022 H 0.0 **** 0.06
21311 C 206.5312207689817 157.82740313938143 160.93424036179226 C 0.0 **** -0.24
21312 H 205.9918675734827 158.47218396306897 160.24032237662476 H 0.0 **** 0.06
21313 H 206.0775030705475 157.90006136527614 161.92322539067675 H 0.0 **** 0.06
21314 H 207.57268537051186 158.1433802439323 160.98817828847342 H 0.0 **** 0.06
21315 H 206.48065052307112 156.79627269872879 160.58543094159876 H 0.0 **** 0.06
21316 C 301.3790257693567 210.2842928258136 60.084389042450425 C 0.0 **** -0.24
21317 H 301.3004391805981 210.92422632487677 60.96362997514484 H 0.0 **** 0.06
21318 H 302.40187747015705 209.91728043286906 59.9932811032337 H 0.0 **** 0.06
21319 H 301.1173788108196 210.8553113596136 59.194311491313044 H 0.0 **** 0.06
21320 H 300.69817135559344 209.43950908256008 60.187418373911214 H 0.0 **** 0.06
21321 C 299.1581414426441 165.58246745219844 95.91317104791491 C 0.0 **** -0.24
21322 H 298.5783320552438 166.45250218958313 95.60504935140659 H 0.0 **** 0.06
21323 H 299.98185139669454 165.90333370441374 96.55172653861212 H 0.0 **** 0.06
21324 H 299.5548223093622 165.08011379770073 95.03162442972265 H 0.0 **** 0.06
21325 H 298.5163621989424 164.89622399528986 96.46578634860691 H 0.0 **** 0.06
21326 C 107.36802787767547 280.1005865094114 153.8038448296192 C 0.0 **** -0.24
21327 H 107.17884320886111 279.3436642513056 154.5652942423344 H 0.0 **** 0.06
21328 H 108.27414420372301 279.84380166399865 153.2539965757773 H 0.0 **** 0.06
21329 H 107.49547201526411 281.0722848221509 154.28122490019786 H 0.0 **** 0.06
21330 H 106.52442907926255 280.1420051035473 153.11464462755282 H 0.0 **** 0.06
21331 C 106.65929212729799 132.4961714728721 146.492779920056 C 0.0 **** -0.24
21332 H 106.48598911135375 132.82489574827264 145.4674225328771 H 0.0 **** 0.06
21333 H 106.51032827758519 133.33505887939984 147.17375645971353 H 0.0 **** 0.06
21334 H 107.6805741818215 132.127609229904 146.58766504538553 H 0.0 **** 0.06
21335 H 105.95984270003007 131.69833609020156 146.74074674645425 H 0.0 **** 0.06
21336 C 83.2365554056413 30.904899695827197 178.32220919088894 C 0.0 **** -0.24
21337 H 82.84760480967623 30.599061659252868 179.2925451489101 H 0.0 **** 0.06
21338 H 82.4447730836188 30.836739768977736 177.57595231120513 H 0.0 **** 0.06
21339 H 84.06139728477879 30.25154243722642 178.03855532579865 H 0.0 **** 0.06
21340 H 83.59273335059021 31.933863957717023 178.38121066349464 H 0.0 **** 0.06
21341 C 220.31871740845898 142.12669028787892 183.05112322356132 C 0.0 **** -0.24
21342 H 220.16563744175383 141.9770441975585 181.98167480129263 H 0.0 **** 0.06
21343 H 220.75852467163642 141.22746037216027 183.48274977623458 H 0.0 **** 0.06
21344 H 219.36128668887676 142.32934271260353 183.52946803113042 H 0.0 **** 0.06
21345 H 220.98931629691023 142.97114962141487 183.207302321773 H 0.0 **** 0.06
21346 C 134.32481004287013 63.734775479324185 311.5962176038668 C 0.0 **** -0.24
21347 H 134.91790453911165 64.60183717273901 311.88505541864754 H 0.0 **** 0.06
21348 H 134.61967804978303 62.87588112297806 312.19912696129546 H 0.0 **** 0.06
21349 H 134.4943478229162 63.51432410008127 310.5421528611765 H 0.0 **** 0.06
21350 H 133.2680574368885 63.94757788078414 311.7581200997397 H 0.0 **** 0.06
21351 C 159.67465886226933 78.78955782216315 10.945487768520124 C 0.0 **** -0.24
21352 H 159.3977497107707 78.84599855464259 9.892783576811766 H 0.0 **** 0.06
21353 H 159.81158429081756 77.74547533103285 11.229891594193816 H 0.0 **** 0.06
21354 H 158.8846407138543 79.23117920055333 11.552761374509018 H 0.0 **** 0.06
21355 H 160.60441672797708 79.33473706955726 11.105404138658969 H 0.0 **** 0.06
21356 C 35.88077614709428 50.25069578172409 221.3844991980755 C 0.0 **** -0.24
21357 H 36.73877985039354 49.91730755639574 221.96814402640368 H 0.0 **** 0.06
21358 H 35.99177742574142 51.30875051303522 221.14800554075106 H 0.0 **** 0.06
21359 H 34.96770810097405 50.10119918062526 221.96151034469807 H 0.0 **** 0.06
21360 H 35.824839211268056 49.67552587684014 220.46033688044923 H 0.0 **** 0.06
21361 C 128.7404203636612 237.9660900099319 44.61738552370113 C 0.0 **** -0.24
21362 H 128.8848608036926 239.0251218565358 44.83257348775288 H 0.0 **** 0.06
21363 H 127.8270660373856 237.61917198560693 45.101904991348675 H 0.0 **** 0.06
21364 H 129.59041024452847 237.39945367071198 44.995442138724655 H 0.0 **** 0.06
21365 H 128.65767457405704 237.8230973320165 43.53981530330802 H 0.0 **** 0.06
21366 C 294.0960145978445 158.22934061837464 309.19910023757416 C 0.0 **** -0.24
21367 H 293.1952094749089 158.67627410306847 308.7790384103836 H 0.0 **** 0.06
21368 H 294.3051649266726 157.28814752963382 308.69033795412327 H 0.0 **** 0.06
21369 H 293.94631577736965 158.04154244557884 310.2626078596409 H 0.0 **** 0.06
21370 H 294.93575931172074 158.91034995353272 309.06497549852077 H 0.0 **** 0.06
21371 C 52.85897441277203 97.52717658820856 158.75370863630428 C 0.0 **** -0.24
21372 H 53.337782313251125 97.73459452058262 157.79680365407927 H 0.0 **** 0.06
21373 H 52.045760164679535 96.81685805441305 158.6068566217334 H 0.0 **** 0.06
21374 H 52.46197314561283 98.45338741428765 159.1701493320316 H 0.0 **** 0.06
21375 H 53.591329048710634 97.10404206838425 159.4420604506409 H 0.0 **** 0.06
21376 C 244.17302369167476 293.1832324990194 168.85713729421855 C 0.0 **** -0.24
21377 H 244.3895441647185 292.57673540103247 169.73683696287202 H 0.0 **** 0.06
21378 H 244.6769006624794 292.7563629381484 167.98980764094824 H 0.0 **** 0.06
21379 H 244.52879075686837 294.19959688114557 169.0213097062786 H 0.0 **** 0.06
21380 H 243.09743139650368 293.19812872026057 168.68265329872287 H 0.0 **** 0.06
21381 C 110.08232635499562 271.9280182367371 32.2031768857797 C 0.0 **** -0.24
21382 H 109.85982100946671 272.36688721412025 31.230896710688597 H 0.0 **** 0.06
21383 H 110.68947476264341 272.62303712162117 32.78422672535987 H 0.0 **** 0.06
21384 H 110.62813744621118 270.99576984389 32.06517859812405 H 0.0 **** 0.06
21385 H 109.14960905670796 271.72924582424235 32.73321681810339 H 0.0 **** 0.06
21386 C 200.7152177956669 256.6789833143906 149.90028423912082 C 0.0 **** -0.24
21387 H 200.87102079041807 255.74443333403372 150.43789386011764 H 0.0 **** 0.06
21388 H 201.1970771292514 257.4939623992985 150.44064617796187 H 0.0 **** 0.06
21389 H 199.6462974648157 256.87779892906696 149.82127772827226 H 0.0 **** 0.06
21390 H 201.14512684153198 256.5997566950815 148.90174345108187 H 0.0 **** 0.06
21391 C 189.99256431556597 170.63107781349834 185.1111369943199 C 0.0 **** -0.24
21392 H 190.91882394095256 171.18877989360885 185.24941514223735 H 0.0 **** 0.06
21393 H 189.14329222090765 171.27821987231175 185.33020414073445 H 0.0 **** 0.06
21394 H 189.98087819402434 169.77480356293916 185.78640301437804 H 0.0 **** 0.06
21395 H 189.9288048527996 170.28319433566452 184.08100585781563 H 0.0 **** 0.06
21396 C 113.70264891099637 249.80729437564304 253.7406724351183 C 0.0 **** -0.24
21397 H 114.07019287489098 250.44861626947093 254.54181163245607 H 0.0 **** 0.06
21398 H 114.54749259304774 249.4124228042188 253.17567425056842 H 0.0 **** 0.06
21399 H 113.05903132749563 250.3848633684154 253.07772687834662 H 0.0 **** 0.06
21400 H 113.13392332446185 248.98102505912715 254.16919032433515 H 0.0 **** 0.06
21401 C 32.16311588249209 120.46326336609403 206.13468253399668 C 0.0 **** -0.24
21402 H 31.940266639528005 119.40479516919018 206.26766989878405 H 0.0 **** 0.06
21403 H 31.367414201240962 120.9317115063767 205.55413233710618 H 0.0 **** 0.06
21404 H 33.11051323522162 120.57211388985326 205.60820256034594 H 0.0 **** 0.06
21405 H 32.23210208455325 120.9437875465116 207.11042418230477 H 0.0 **** 0.06
21406 C 183.47107979987794 70.31968512478855 140.00537161311598 C 0.0 **** -0.24
21407 H 182.47578788058064 70.76141262661764 140.0594193875175 H 0.0 **** 0.06
21408 H 183.38265178726215 69.23848733050858 139.89954550224553 H 0.0 **** 0.06
21409 H 184.02173495112953 70.55208925647725 140.91726008049372 H 0.0 **** 0.06
21410 H 184.0022361740855 70.72770257263238 139.145934579681 H 0.0 **** 0.06
21411 C 237.62539318354996 6.425823820642435 269.4127980690905 C 0.0 **** -0.24
21412 H 237.65882817190584 6.163317689822179 270.4700345522428 H 0.0 **** 0.06
21413 H 236.62062076006254 6.249758180597553 269.02692552087206 H 0.0 **** 0.06
21414 H 238.33897757740857 5.81004800139452 268.86333122469375 H 0.0 **** 0.06
21415 H 237.88370845674484 7.477399767245075 269.2908571203624 H 0.0 **** 0.06
21416 C 157.29567742268256 143.39105660438167 234.6270091439178 C 0.0 **** -0.24
21417 H 157.7935260280238 142.57966225334079 235.157919045027 H 0.0 **** 0.06
21418 H 156.2176957846089 143.23012756055743 234.6468278678912 H 0.0 **** 0.06
21419 H 157.64059162951048 143.41398243121841 233.59292793359464 H 0.0 **** 0.06
21420 H 157.53067307723273 144.33909039390295 235.11066224826953 H 0.0 **** 0.06
21421 C 100.6911412375525 113.4788905435019 131.36185121182274 C 0.0 **** -0.24
21422 H 100.6460079253109 114.51353181690999 131.02162809357765 H 0.0 **** 0.06
21423 H 101.73209728177451 113.18960842494764 131.5059647766006 H 0.0 **** 0.06
21424 H 100.23397033507743 112.8311426111027 130.6142819983238 H 0.0 **** 0.06
21425 H 100.15263704831011 113.38258997909747 132.30501969765612 H 0.0 **** 0.06
21426 C 253.76703619504337 283.14623777140747 268.4895448935373 C 0.0 **** -0.24
21427 H 253.61426766320238 283.3996491738315 269.53826734655496 H 0.0 **** 0.06
21428 H 253.29493161681722 283.90251024303035 267.8611178307452 H 0.0 **** 0.06
21429 H 253.32258024902592 282.1724549359496 268.28255877379183 H 0.0 **** 0.06
21430 H 254.83520601124644 283.1111370744211 268.2763606239457 H 0.0 **** 0.06
21431 C 274.95072469418255 46.28333983529512 243.78650710096093 C 0.0 **** -0.24
21432 H 274.4392098852755 45.39521658232607 243.41274909534167 H 0.0 **** 0.06
21433 H 276.02816318599383 46.144940803388295 243.69765129943204 H 0.0 **** 0.06
21434 H 274.6890958033315 46.43859199548882 244.83324796702794 H 0.0 **** 0.06
21435 H 274.6456936065475 47.15094629302024 243.20256839353698 H 0.0 **** 0.06
21436 C 126.75379936656066 231.26244037852226 226.01332172867413 C 0.0 **** -0.24
21437 H 127.10997034222623 231.64275542056052 225.05583854052165 H 0.0 **** 0.06
21438 H 126.22288404521836 230.32276255077403 225.85644643512632 H 0.0 **** 0.06
21439 H 126.08090118361201 231.98998292481662 226.46556084908323 H 0.0 **** 0.06
21440 H 127.60361136887272 231.09269699111582 226.67451995419512 H 0.0 **** 0.06
21441 C 158.5130432823704 72.69045411171834 110.84818506625749 C 0.0 **** -0.24
21442 H 159.1588650493398 73.40279421551807 110.33459654165699 H 0.0 **** 0.06
21443 H 158.9795932685189 71.70502321912909 110.84009683556101 H 0.0 **** 0.06
21444 H 157.55046453694536 72.64042397246888 110.33891745942532 H 0.0 **** 0.06
21445 H 158.36190295887042 73.01351553056475 111.8776525340833 H 0.0 **** 0.06
21446 C 78.99130975316339 113.78757104590605 52.16946889065599 C 0.0 **** -0.24
21447 H 78.6820775282552 112.92670648764621 52.76343185218181 H 0.0 **** 0.06
21448 H 80.07352641957061 113.767780325409 52.039442870085935 H 0.0 **** 0.06
21449 H 78.70294785285253 114.70514413664705 52.68227624958038 H 0.0 **** 0.06
21450 H 78.5069407712783 113.74826973697535 51.194528666858275 H 0.0 **** 0.06
21451 C 132.67640172871674 124.4678567821648 217.4151132921745 C 0.0 **** -0.24
21452 H 132.69631622841277 123.96634094474703 216.4480281753124 H 0.0 **** 0.06
21453 H 131.7021307527871 124.31851040471906 217.8817074198392 H 0.0 **** 0.06
21454 H 132.8512431158068 125.53419698303244 217.2740338363798 H 0.0 **** 0.06
21455 H 133.4540893480998 124.05321450496112 218.05570293770205 H 0.0 **** 0.06
21456 C 28.642948134905453 50.190195579252304 245.34877982610058 C 0.0 **** -0.24
21457 H 28.009491480474935 50.29407955901888 246.2293779938195 H 0.0 **** 0.06
21458 H 28.885261551141525 51.178358523637485 244.9574889439636 H 0.0 **** 0.06
21459 H 28.113634938174357 49.6165384850741 244.58774603613472 H 0.0 **** 0.06
21460 H 29.560651672258018 49.67118069869002 245.6215216665085 H 0.0 **** 0.06
21461 C 74.59204085426592 278.68030706502907 211.7558122136126 C 0.0 **** -0.24
21462 H 73.6779475327123 279.210909829739 212.02143121428657 H 0.0 **** 0.06
21463 H 75.10065982012938 278.3559177521117 212.6639034387609 H 0.0 **** 0.06
21464 H 75.24661858357646 279.3437790063917 211.19013091484317 H 0.0 **** 0.06
21465 H 74.34293748064545 277.8106216718739 211.14778328655973 H 0.0 **** 0.06
21466 C 88.30508726567899 251.06399666977433 230.18674011535353 C 0.0 **** -0.24
21467 H 89.01797896551167 250.59467295400836 230.86413587903763 H 0.0 **** 0.06
21468 H 87.44826477109447 251.42634711211508 230.755975326681 H 0.0 **** 0.06
21469 H 87.96952012019253 250.33254897978935 229.45047703408397 H 0.0 **** 0.06
21470 H 88.78279132079834 251.90004829524918 229.67678240992794 H 0.0 **** 0.06
21471 C 156.0947135856668 166.37718391581387 237.40797696080426 C 0.0 **** -0.24
21472 H 157.008600744185 166.96859529067376 237.45891019790713 H 0.0 **** 0.06
21473 H 156.1410802158838 165.57302258752725 238.14253672351052 H 0.0 **** 0.06
21474 H 155.99186156855257 165.95215987370028 236.4093246799431 H 0.0 **** 0.06
21475 H 155.23652911342316 167.01542332340858 237.62154949221357 H 0.0 **** 0.06
21476 C 13.391173859281878 227.82255696720605 24.95381137934271 C 0.0 **** -0.24
21477 H 14.236312427826647 227.5462874176432 24.32351677777058 H 0.0 **** 0.06
21478 H 12.84725679610176 226.9242695424516 25.24550347679417 H 0.0 **** 0.06
21479 H 12.726625842926808 228.48596895874567 24.399016985140634 H 0.0 **** 0.06
21480 H 13.754184178809794 228.33475513199352 25.845261266333296 H 0.0 **** 0.06
21481 C 176.1874409573549 308.03424249257387 218.2233763597326 C 0.0 **** -0.24
21482 H 176.55179684737396 307.66337711548977 219.18184545745495 H 0.0 **** 0.06
21483 H 175.9205968077859 309.0863335763168 218.3191516047702 H 0.0 **** 0.06
21484 H 175.31059754021032 307.4615415616936 217.9221943333119 H 0.0 **** 0.06
21485 H 176.96942237688535 307.9243877059979 217.47141403394414 H 0.0 **** 0.06
21486 C 33.25643509896793 240.10202075585426 44.854070561214485 C 0.0 **** -0.24
21487 H 33.343705801292685 240.6914526354297 45.766980324205235 H 0.0 **** 0.06
21488 H 34.17589574292106 240.18847851402134 44.27622843374357 H 0.0 **** 0.06
21489 H 32.41849677660508 240.47275061874475 44.26161626104468 H 0.0 **** 0.06
21490 H 33.08436467499777 239.0571981185795 45.11128403813095 H 0.0 **** 0.06
21491 C 244.30190733902145 116.42183252523284 166.15477180453428 C 0.0 **** -0.24
21492 H 245.36466999475851 116.33465714209098 166.3819861146763 H 0.0 **** 0.06
21493 H 243.9236538970446 115.45884179653262 165.80969565884453 H 0.0 **** 0.06
21494 H 244.15702497771207 117.16880319559732 165.37547772613993 H 0.0 **** 0.06
21495 H 243.76232185688025 116.72382671388061 167.0526728957321 H 0.0 **** 0.06
21496 C 4.978906096084188 305.92731243239325 21.894793897111356 C 0.0 **** -0.24
21497 H 4.7767662135372575 304.86007721224047 21.802107305733898 H 0.0 **** 0.06
21498 H 5.099197832104437 306.3607665536093 20.90099875652757 H 0.0 **** 0.06
21499 H 5.893591198210686 306.0752969037011 22.469151026113366 H 0.0 **** 0.06
21500 H 4.145868624988452 306.4113300684337 22.403952857391573 H 0.0 **** 0.06
21501 C 154.59818353626508 187.158836778315 163.03591677723904 C 0.0 **** -0.24
21502 H 155.47004506057038 187.6463729948244 163.46974653727472 H 0.0 **** 0.06
21503 H 154.76494277586113 186.0825857830505 162.99669307055854 H 0.0 **** 0.06
21504 H 154.43448333972162 187.5373618390663 162.02633053547282 H 0.0 **** 0.06
21505 H 153.72224549084012 187.3690649754858 163.64890616675245 H 0.0 **** 0.06
21506 C 293.4353204350552 219.34852871050157 151.11540887974536 C 0.0 **** -0.24
21507 H 293.98235701623196 218.9664246801675 150.2530065126357 H 0.0 **** 0.06
21508 H 293.7937928853446 220.3479991590101 151.35935491826348 H 0.0 **** 0.06
21509 H 293.59367323593204 218.68666165872713 151.96707122353945 H 0.0 **** 0.06
21510 H 292.37108164379583 219.39042052757748 150.88077037759876 H 0.0 **** 0.06
21511 C 138.10735932068602 107.99177040474956 126.61029092279821 C 0.0 **** -0.24
21512 H 138.67029521027226 107.36667405625317 125.91818610218263 H 0.0 **** 0.06
21513 H 138.5760720811847 107.95617277252319 127.59441058662796 H 0.0 **** 0.06
21514 H 137.08428150065254 107.62381829418962 126.68183366769028 H 0.0 **** 0.06
21515 H 138.10029072511927 109.01969272227484 126.24822312179617 H 0.0 **** 0.06
21516 C 76.59232176856767 6.781115637696189 39.08715690736716 C 0.0 **** -0.24
21517 H 77.07646733534364 6.976020350974068 38.12960921760569 H 0.0 **** 0.06
21518 H 75.84620176114015 5.995518705972813 38.96265087946358 H 0.0 **** 0.06
21519 H 76.10769003413031 7.690718845403239 39.44103320442349 H 0.0 **** 0.06
21520 H 77.34016223531899 6.461684555685565 39.81328346117334 H 0.0 **** 0.06
21521 C 5.931023408835173 158.13082168246456 209.33283720963817 C 0.0 **** -0.24
21522 H 6.960134949892634 157.77995341829444 209.41487531563348 H 0.0 **** 0.06
21523 H 5.747752468398886 158.89628056008183 210.08714140607123 H 0.0 **** 0.06
21524 H 5.249377314995428 157.29489285688993 209.48982749945287 H 0.0 **** 0.06
21525 H 5.768506822577422 158.55129002419983 208.34069957795154 H 0.0 **** 0.06
21526 C 300.4830242124453 203.7415802537828 87.77774579198993 C 0.0 **** -0.24
21527 H 301.0235282884298 203.82215043345906 86.83485919329883 H 0.0 **** 0.06
21528 H 300.22068436103024 204.7388003044568 88.13201874591493 H 0.0 **** 0.06
21529 H 301.11407107562076 203.24804622974324 88.51648686366184 H 0.0 **** 0.06
21530 H 299.5743994681998 203.1578875923749 87.62703645190646 H 0.0 **** 0.06
21531 C 199.54994566712935 147.8031393825931 197.4103563469352 C 0.0 **** -0.24
21532 H 198.4905518805541 147.54865468542133 197.37570530647582 H 0.0 **** 0.06
21533 H 199.6840865270011 148.84226314555116 197.1090867220812 H 0.0 **** 0.06
21534 H 200.10045596807362 147.15251385372272 196.7303716540094 H 0.0 **** 0.06
21535 H 199.92242716222705 147.6660072213806 198.4247914850617 H 0.0 **** 0.06
21536 C 270.3635104448099 125.59694267632906 128.65571272996638 C 0.0 **** -0.24
21537 H 269.46005265111097 125.1928704756987 129.11245994861198 H 0.0 **** 0.06
21538 H 270.8104327390689 126.33227354504928 129.32509702037945 H 0.0 **** 0.06
21539 H 270.1103227273981 126.07233501748382 127.70869137514839 H 0.0 **** 0.06
21540 H 271.07277228924124 124.78790024791272 128.47804072935384 H 0.0 **** 0.06
21541 C 49.405411497877935 246.64145699507063 33.6848815959265 C 0.0 **** -0.24
21542 H 49.98342512163461 247.24635449503774 32.986465091394166 H 0.0 **** 0.06
21543 H 49.55453524082188 247.0152327621779 34.69886588781492 H 0.0 **** 0.06
21544 H 49.73635948106113 245.60415116112617 33.627702995286 H 0.0 **** 0.06
21545 H 48.348038381053954 246.7003020930854 33.427161407778726 H 0.0 **** 0.06
21546 C 9.434799939315639 246.94581607049116 311.3899400486581 C 0.0 **** -0.24
21547 H 9.754814212711608 246.58866721824634 312.36901405715867 H 0.0 **** 0.06
21548 H 9.636017509714534 246.17949989646905 310.6401711717694 H 0.0 **** 0.06
21549 H 9.983099189204282 247.85354545891582 311.13790306721444 H 0.0 **** 0.06
21550 H 8.366103348861685 247.16051237185638 311.4131445432331 H 0.0 **** 0.06
21551 C 47.58153442873393 251.32561891363406 207.15034581658176 C 0.0 **** -0.24
21552 H 47.20679616552317 252.14397622804887 207.7653067022689 H 0.0 **** 0.06
21553 H 46.91182021501774 250.46956739256575 207.23822083858101 H 0.0 **** 0.06
21554 H 48.57817053285524 251.04351157981395 207.48930639921159 H 0.0 **** 0.06
21555 H 47.62820636949908 251.64474523468388 206.1090334368318 H 0.0 **** 0.06
21556 C 273.97273618456006 4.609640604977301 286.56867810690625 C 0.0 **** -0.24
21557 H 274.96159154755895 4.328178086690642 286.2053720705342 H 0.0 **** 0.06
21558 H 274.06500625575984 5.452088495176341 287.25565273925815 H 0.0 **** 0.06
21559 H 273.52275433725333 3.7645997059862992 287.08827079266814 H 0.0 **** 0.06
21560 H 273.34421065318026 4.8953859572362575 285.7248780105159 H 0.0 **** 0.06
21561 C 122.82935754326732 218.65502827470073 258.60936767506615 C 0.0 **** -0.24
21562 H 121.83070189497138 218.79850392607273 259.0227621436338 H 0.0 **** 0.06
21563 H 123.53423313114331 219.30341337971237 259.12928931220523 H 0.0 **** 0.06
21564 H 122.82114327253282 218.90362744277812 257.5483255800371 H 0.0 **** 0.06
21565 H 123.12839982491693 217.61490431929354 258.7375090786898 H 0.0 **** 0.06
21566 C 15.62477364325612 33.167276471998264 171.13898503303517 C 0.0 **** -0.24
21567 H 15.047859498167483 33.97324066587899 170.68623992362416 H 0.0 **** 0.06
21568 H 14.961926194612843 32.52973059907859 171.72399346846908 H 0.0 **** 0.06
21569 H 16.390185149947598 33.589970629556746 171.78943581696882 H 0.0 **** 0.06
21570 H 16.100511173082495 32.576188734665834 170.35599816055304 H 0.0 **** 0.06
21571 C 160.21742577281833 190.67538164112182 311.7434496987563 C 0.0 **** -0.24
21572 H 160.75514542752683 189.76101542677577 311.49328305920767 H 0.0 **** 0.06
21573 H 160.04789722123047 190.71477945724115 312.8196440278399 H 0.0 **** 0.06
21574 H 159.25844501427036 190.68606760172867 311.2243321108723 H 0.0 **** 0.06
21575 H 160.80577292212485 191.53965291858304 311.4363550264703 H 0.0 **** 0.06
21576 C 251.88363370583244 125.05685464387517 32.78488712960589 C 0.0 **** -0.24
21577 H 252.7143315293256 125.21224203539208 33.473708033132965 H 0.0 **** 0.06
21578 H 251.5682052829631 124.01471110853069 32.82698354573077 H 0.0 **** 0.06
21579 H 252.20377626821784 125.29975872284675 31.771693812467902 H 0.0 **** 0.06
21580 H 251.05180887712558 125.70169517502325 33.06755741750152 H 0.0 **** 0.06
21581 C 132.43636858284162 36.3748963658428 181.58230055601143 C 0.0 **** -0.24
21582 H 131.63006908894224 36.1292746352367 180.8914985297231 H 0.0 **** 0.06
21583 H 132.5275237475933 37.45916400848628 181.6623491358393 H 0.0 **** 0.06
21584 H 133.37230702844687 35.957565421173854 181.21093892849865 H 0.0 **** 0.06
21585 H 132.21490845987825 35.95516304779534 182.56338857654362 H 0.0 **** 0.06
21586 C 170.84764089175803 230.41537161435159 13.496295406346121 C 0.0 **** -0.24
21587 H 171.66751982987125 229.71761303707035 13.327272205229121 H 0.0 **** 0.06
21588 H 170.38759364597132 230.2066542645896 14.462867160350868 H 0.0 **** 0.06
21589 H 170.10423634830556 230.2993851022303 12.707567212264166 H 0.0 **** 0.06
21590 H 171.23141525755045 231.4353939233195 13.487403051149329 H 0.0 **** 0.06
21591 C 15.692542179194362 194.19928662021516 225.2757211208969 C 0.0 **** -0.24
21592 H 16.34289117500103 193.4947695900757 225.7947560816728 H 0.0 **** 0.06
21593 H 14.681489835855345 193.79348894464073 225.22946358440228 H 0.0 **** 0.06
21594 H 16.06638289591504 194.35974510525443 224.26433071929807 H 0.0 **** 0.06
21595 H 15.680775387066731 195.14721510536748 225.81369740260837 H 0.0 **** 0.06
21596 C 121.53631132445861 166.24338541996048 96.44486706815186 C 0.0 **** -0.24
21597 H 122.5570092258564 166.06639557963416 96.1065451234993 H 0.0 **** 0.06
21598 H 120.87934139375085 166.34632338607918 95.58050392644387 H 0.0 **** 0.06
21599 H 121.50334149690883 167.1580254618923 97.03666596397986 H 0.0 **** 0.06
21600 H 121.2052538965813 165.40361118282362 97.05625120461349 H 0.0 **** 0.06
21601 C 247.42636675774625 104.56207947208327 158.8104145374424 C 0.0 **** -0.24
21602 H 246.83464362919773 105.32141604580428 159.3218234321971 H 0.0 **** 0.06
21603 H 247.5097366355653 103.67933757873848 159.44410181168018 H 0.0 **** 0.06
21604 H 248.42056251179892 104.95610465512519 158.60205114535222 H 0.0 **** 0.06
21605 H 246.93870397700323 104.29226934281965 157.873505866465 H 0.0 **** 0.06
21606 C 131.38407572773224 172.90807915473755 310.3371114673595 C 0.0 **** -0.24
21607 H 131.9096208988275 172.49549792487852 311.1989718718912 H 0.0 **** 0.06
21608 H 130.8487266445351 172.11119570599567 309.82250630735973 H 0.0 **** 0.06
21609 H 132.10580548897028 173.36059099476955 309.6564055540215 H 0.0 **** 0.06
21610 H 130.67598590738572 173.66510532002167 310.67207196491955 H 0.0 **** 0.06
21611 C 254.45029365928653 217.97619210507568 58.50179747733705 C 0.0 **** -0.24
21612 H 254.7267171055021 217.29049978497267 59.30340927569185 H 0.0 **** 0.06
21613 H 254.7906671009219 218.98137889160307 58.74990993785477 H 0.0 **** 0.06
21614 H 253.36667751212622 217.97775163802427 58.38387816788352 H 0.0 **** 0.06
21615 H 254.91634054457572 217.6532147602602 57.57083169607543 H 0.0 **** 0.06
21616 C 53.54018276838721 189.73725786278766 79.5010164930876 C 0.0 **** -0.24
21617 H 53.63378193967901 190.48267130937302 80.28985762556286 H 0.0 **** 0.06
21618 H 53.58493457326338 190.22905034605793 78.52851364674032 H 0.0 **** 0.06
21619 H 52.58539216857005 189.21930678429243 79.60282980490209 H 0.0 **** 0.06
21620 H 54.35465722634541 189.01707844246278 79.58233261838316 H 0.0 **** 0.06
21621 C 58.607610431250635 141.85191302720273 190.3311725068137 C 0.0 **** -0.24
21622 H 59.41664906818349 141.48964377758 190.96378045419567 H 0.0 **** 0.06
21623 H 58.18460233302426 142.7580946479935 190.76517408575074 H 0.0 **** 0.06
21624 H 57.832951155162846 141.08803203969944 190.25876258878236 H 0.0 **** 0.06
21625 H 58.994954971430076 142.0713995353047 189.3366287790643 H 0.0 **** 0.06
21626 C 7.038093311375064 11.1549765062382 298.59658294770827 C 0.0 **** -0.24
21627 H 6.71827743179017 11.98424645133457 299.2272274667356 H 0.0 **** 0.06
21628 H 7.01824631341367 10.230698884820583 299.17355376395443 H 0.0 **** 0.06
21629 H 8.052184212363613 11.340507428623994 298.24142625682924 H 0.0 **** 0.06
21630 H 6.365632777301414 11.067103178701018 297.7437972453446 H 0.0 **** 0.06
21631 C 275.3420161152184 119.56040632032742 204.6803565727147 C 0.0 **** -0.24
21632 H 276.09043326560004 119.19248200917374 205.3822203915921 H 0.0 **** 0.06
21633 H 275.80686807176096 119.72463202346256 203.70760329860508 H 0.0 **** 0.06
21634 H 274.9289329944216 120.49859008317515 205.04955828998158 H 0.0 **** 0.06
21635 H 274.5441727420152 118.82525505496972 204.58230601369684 H 0.0 **** 0.06
21636 C 39.513612460518175 275.7464110931378 48.686285046912246 C 0.0 **** -0.24
21637 H 39.49254173413567 276.8135507865595 48.46541574447721 H 0.0 **** 0.06
21638 H 38.6862471653331 275.2534413381364 48.175464294920715 H 0.0 **** 0.06
21639 H 39.41690626032948 275.5971246789802 49.76245084958825 H 0.0 **** 0.06
21640 H 40.45709073393289 275.3230285481061 48.34404052753817 H 0.0 **** 0.06
21641 C 48.48979424930212 308.37662615980065 112.21405169194372 C 0.0 **** -0.24
21642 H 47.56319113650889 307.89185093665554 112.5223762074431 H 0.0 **** 0.06
21643 H 48.30876916780065 309.4411962408185 112.06250362478158 H 0.0 **** 0.06
21644 H 48.840297840969725 307.9309247267799 111.28279887040819 H 0.0 **** 0.06
21645 H 49.24500478763579 308.2428647383173 112.9880525131939 H 0.0 **** 0.06
21646 C 70.92343260761538 261.63010702458575 86.73723234239591 C 0.0 **** -0.24
21647 H 71.1751665947053 261.3578524044958 87.76219515696516 H 0.0 **** 0.06
21648 H 70.90224933067276 260.73438707805616 86.11750144081395 H 0.0 **** 0.06
21649 H 71.67353523994146 262.321558937108 86.3513791960797 H 0.0 **** 0.06
21650 H 69.94417506479343 262.1089756465949 86.71909784997757 H 0.0 **** 0.06
21651 C 293.4479790740727 147.0834242000295 9.210637909031902 C 0.0 **** -0.24
21652 H 293.3123837022573 147.753266766748 10.060122566682296 H 0.0 **** 0.06
21653 H 292.48819810723717 146.64654398678508 8.93581519795147 H 0.0 **** 0.06
21654 H 294.1435385862157 146.28933728430246 9.482798315479087 H 0.0 **** 0.06
21655 H 293.84877707544894 147.6432692897309 8.366345434745966 H 0.0 **** 0.06
21656 C 169.60351188600998 52.477915885442684 84.87352628342774 C 0.0 **** -0.24
21657 H 168.89346826692775 52.836867978234295 84.12836468699598 H 0.0 **** 0.06
21658 H 169.1599126275192 51.65128079126478 85.42936841319278 H 0.0 **** 0.06
21659 H 169.850087768327 53.28793984604573 85.56000415477237 H 0.0 **** 0.06
21660 H 170.51103188624876 52.13575805483157 84.37504075426224 H 0.0 **** 0.06
21661 C 189.41856315807502 190.66515146632503 71.22490134329081 C 0.0 **** -0.24
21662 H 190.17931027139178 190.1678978068523 71.82669863300694 H 0.0 **** 0.06
21663 H 188.9098782356092 191.41550737264203 71.83127500669539 H 0.0 **** 0.06
21664 H 188.69476405301782 189.92894870154873 70.87436932261068 H 0.0 **** 0.06
21665 H 189.88974625295896 191.14747741076945 70.36951925534822 H 0.0 **** 0.06
21666 C 195.9178725405783 309.58636491525385 111.80511420522092 C 0.0 **** -0.24
21667 H 195.1446756453302 309.67811886662895 111.04345606947365 H 0.0 **** 0.06
21668 H 196.86424578301535 309.3217444674587 111.33187952635586 H 0.0 **** 0.06
21669 H 195.63714426709743 308.8102629871104 112.51674527614549 H 0.0 **** 0.06
21670 H 196.02741051421378 310.53624202299784 112.32789643525851 H 0.0 **** 0.06
21671 C 211.599165629579 213.9184817086102 296.22351344071956 C 0.0 **** -0.24
21672 H 211.95143337562007 214.37494127446035 295.2992188752387 H 0.0 **** 0.06
21673 H 211.39298322593072 212.86187047176767 296.0507915151925 H 0.0 **** 0.06
21674 H 210.68836354255288 214.41823327621773 296.5516479769232 H 0.0 **** 0.06
21675 H 212.3652727884422 214.01864897110823 296.99250738836645 H 0.0 **** 0.06
21676 C 226.92905848885385 217.0087868640149 163.48708035025254 C 0.0 **** -0.24
21677 H 227.2332082500651 218.04961181253816 163.37179069855307 H 0.0 **** 0.06
21678 H 226.36740889642275 216.89508294867483 164.41380118243046 H 0.0 **** 0.06
21679 H 227.81438569932754 216.37383197904182 163.51805410712177 H 0.0 **** 0.06
21680 H 226.30308268852764 216.7174674084664 162.64375086462275 H 0.0 **** 0.06
21681 C 222.74742641523642 302.82672122347856 5.705578265732697 C 0.0 **** -0.24
21682 H 222.52267630143365 303.8782267221026 5.529510328616993 H 0.0 **** 0.06
21683 H 222.08570755188643 302.43879744585234 6.480439312353326 H 0.0 **** 0.06
21684 H 223.7836457253378 302.7252428376789 6.026916133008058 H 0.0 **** 0.06
21685 H 222.59656088582432 302.26331641658976 4.784011137567177 H 0.0 **** 0.06
21686 C 21.766495008901245 262.0615964062187 192.68934200933745 C 0.0 **** -0.24
21687 H 22.67691947197585 261.61759261099763 193.09274290137472 H 0.0 **** 0.06
21688 H 22.019400614437586 262.7050818945415 191.8465718557245 H 0.0 **** 0.06
21689 H 21.27797505479731 262.6529402534551 193.46405683468305 H 0.0 **** 0.06
21690 H 21.09443575895341 261.2719389303173 192.3562477635573 H 0.0 **** 0.06
21691 C 48.05943294430588 180.86149437455396 206.19783146884595 C 0.0 **** -0.24
21692 H 49.13901117924689 181.00314559777087 206.14608095069406 H 0.0 **** 0.06
21693 H 47.811933643907906 180.27890901164034 207.0849722351632 H 0.0 **** 0.06
21694 H 47.71900962396859 180.3324871096865 205.3080558658795 H 0.0 **** 0.06
21695 H 47.56923263730451 181.8340377133119 206.25188207012815 H 0.0 **** 0.06
21696 C 273.81414286193547 168.02542631196002 297.4032977756419 C 0.0 **** -0.24
21697 H 272.89922894359415 167.45676549518623 297.24132018143604 H 0.0 **** 0.06
21698 H 274.6262281841853 167.5781184397726 296.83004613179276 H 0.0 **** 0.06
21699 H 274.0667780146465 168.01268671933963 298.4638016817288 H 0.0 **** 0.06
21700 H 273.66369812960727 169.0548232712531 297.07767892847414 H 0.0 **** 0.06
21701 C 98.07354116241086 271.8205292840105 302.0712773956386 C 0.0 **** -0.24
21702 H 97.10637864347552 271.73728973174 302.56566002350814 H 0.0 **** 0.06
21703 H 98.67043761933314 270.9350804541533 302.2906272093754 H 0.0 **** 0.06
21704 H 98.59248230008265 272.70703929824236 302.43382316330315 H 0.0 **** 0.06
21705 H 97.9249797481917 271.9011595875224 300.99423068701896 H 0.0 **** 0.06
21706 C 15.690368884064227 4.6092484511449925 5.196900546885587 C 0.0 **** -0.24
21707 H 16.106952679030073 3.8234032703363567 5.82736041526573 H 0.0 **** 0.06
21708 H 15.089077370865922 5.284135127764756 5.807296194470098 H 0.0 **** 0.06
21709 H 15.064025637407454 4.162451658512083 4.424332027903759 H 0.0 **** 0.06
21710 H 16.501483227828132 5.167527838330358 4.729462853683501 H 0.0 **** 0.06
21711 C 35.72964313317442 22.877022995986806 12.776703970788517 C 0.0 **** -0.24
21712 H 34.659938949977345 23.02989725978918 12.635828965655989 H 0.0 **** 0.06
21713 H 36.103309139504375 23.584561665813624 13.517531953981177 H 0.0 **** 0.06
21714 H 36.24602260010312 23.034895746169752 11.83032730858514 H 0.0 **** 0.06
21715 H 35.908632962302704 21.859450706689103 13.12291867830288 H 0.0 **** 0.06
21716 C 158.39264918394628 133.21797097144884 70.26044034950985 C 0.0 **** -0.24
21717 H 157.56415853779873 132.8708616058983 69.64188987156467 H 0.0 **** 0.06
21718 H 159.28411621130357 132.6312734216046 70.0351053072028 H 0.0 **** 0.06
21719 H 158.13389465404407 133.09864431617112 71.31271483566414 H 0.0 **** 0.06
21720 H 158.58629702484546 134.2699992273149 70.05025135349351 H 0.0 **** 0.06
21721 C 150.90730442174828 110.18045978148365 60.31578635468506 C 0.0 **** -0.24
21722 H 150.3368364405843 109.41058841850275 59.79519657224185 H 0.0 **** 0.06
21723 H 151.87223013167005 110.31173743556346 59.82546104975145 H 0.0 **** 0.06
21724 H 151.06291053026348 109.87863383240227 61.351439860660975 H 0.0 **** 0.06
21725 H 150.35505662490527 111.12052087059323 60.29072891966851 H 0.0 **** 0.06
21726 C 50.55608588914643 2.775015058081209 116.72112529957616 C 0.0 **** -0.24
21727 H 49.73705404582097 3.349511552149508 117.15438269417544 H 0.0 **** 0.06
21728 H 50.18671417456494 2.1996592017642627 115.87184941514386 H 0.0 **** 0.06
21729 H 50.95996050474861 2.096693794153083 117.47199206732625 H 0.0 **** 0.06
21730 H 51.33891696649175 3.455612073318747 116.38733112014859 H 0.0 **** 0.06
21731 C 50.00192724870317 295.84226717910155 259.2850261620813 C 0.0 **** -0.24
21732 H 48.9803444229901 295.473792897156 259.1968639279404 H 0.0 **** 0.06
21733 H 50.680270610301875 295.15832720656647 258.775784820625 H 0.0 **** 0.06
21734 H 50.274296719158514 295.9079813795002 260.3388766590129 H 0.0 **** 0.06
21735 H 50.072180801207935 296.8304088185136 258.8301735602112 H 0.0 **** 0.06
21736 C 12.486041555213603 250.94719659330548 179.8040052623228 C 0.0 **** -0.24
21737 H 13.300057735551405 251.59651093713464 179.48099304415587 H 0.0 **** 0.06
21738 H 11.880774352708656 250.66714577092162 178.94137990680423 H 0.0 **** 0.06
21739 H 11.865916953046963 251.47616932322808 180.52751937935324 H 0.0 **** 0.06
21740 H 12.898903071413969 250.05055290783784 180.26562287144236 H 0.0 **** 0.06
21741 C 26.608093785099868 279.24974776269215 20.90187074118012 C 0.0 **** -0.24
21742 H 27.42622623336638 279.4173607564418 21.60132518924442 H 0.0 **** 0.06
21743 H 26.992360524886408 278.76624731048287 20.00352073311697 H 0.0 **** 0.06
21744 H 26.156224888144948 280.20509041903506 20.635590329992496 H 0.0 **** 0.06
21745 H 25.857629818417365 278.6094080628201 21.36658490958783 H 0.0 **** 0.06
21746 C 84.52005057757904 168.12822782482056 259.8104736929601 C 0.0 **** -0.24
21747 H 83.65099747467366 167.48928975765136 259.9664615109298 H 0.0 **** 0.06
21748 H 85.40419720730296 167.50867777634556 259.65731094083407 H 0.0 **** 0.06
21749 H 84.66764662934224 168.76282172509332 260.68428050047874 H 0.0 **** 0.06
21750 H 84.35778333298563 168.75273740016138 258.93173397979723 H 0.0 **** 0.06
21751 C 139.3300724366166 22.026960665920484 65.7276805195907 C 0.0 **** -0.24
21752 H 139.66486238247464 22.758299258208638 66.4637932206598 H 0.0 **** 0.06
21753 H 138.69797602477635 21.284203672599233 66.21407287524767 H 0.0 **** 0.06
21754 H 140.1970717514979 21.53491440143094 65.28695723766444 H 0.0 **** 0.06
21755 H 138.76311815380544 22.532271829714233 64.94619999128341 H 0.0 **** 0.06
21756 C 309.0945976900773 32.42550964188678 98.9430243969577 C 0.0 **** -0.24
21757 H 308.2487801619043 32.86667461853446 99.47251333231645 H 0.0 **** 0.06
21758 H 309.2801684035364 32.9852889836547 98.02621419315122 H 0.0 **** 0.06
21759 H 308.86671298977615 31.388909229142456 98.69639817374039 H 0.0 **** 0.06
21760 H 309.97965115341634 32.46318907361368 99.57762897818549 H 0.0 **** 0.06
21761 C 46.200569385921085 54.97503929620348 44.75964094168182 C 0.0 **** -0.24
21762 H 45.951948342951425 54.63549189679574 43.75450090796633 H 0.0 **** 0.06
21763 H 45.64856156187773 55.88816649464039 44.981071357619896 H 0.0 **** 0.06
21764 H 47.27072243403961 55.172705511237524 44.82124346550836 H 0.0 **** 0.06
21765 H 45.931670806326906 54.20317292737536 45.480256795805104 H 0.0 **** 0.06
21766 C 274.6138235037437 234.25621702142502 5.650116444951863 C 0.0 **** -0.24
21767 H 275.29525518186415 234.32176324140573 6.498241972459809 H 0.0 **** 0.06
21768 H 274.2928964708311 233.22252052372932 5.521148462967062 H 0.0 **** 0.06
21769 H 275.12546474339973 234.59323539188418 4.748028747229981 H 0.0 **** 0.06
21770 H 273.7445584441501 234.88651810290511 5.833149625388373 H 0.0 **** 0.06
21771 C 245.10873164148504 215.0289485308872 249.85199058184892 C 0.0 **** -0.24
21772 H 244.79758889511908 214.5772115306204 250.79366527184328 H 0.0 **** 0.06
21773 H 244.7407634735138 216.05347222090447 249.80172147079895 H 0.0 **** 0.06
21774 H 244.69878612904893 214.45351703959471 249.02149035353565 H 0.0 **** 0.06
21775 H 246.19705266214393 215.03003062344095 249.79121612038432 H 0.0 **** 0.06
21776 C 196.44343949425416 308.732358658001 288.9274139037081 C 0.0 **** -0.24
21777 H 197.4968678355271 308.6772454205974 289.2020547803817 H 0.0 **** 0.06
21778 H 195.838601719123 308.8319455353245 289.8292171381231 H 0.0 **** 0.06
21779 H 196.159314460078 307.824826563296 288.3953210461138 H 0.0 **** 0.06
21780 H 196.28183332670767 309.5972636043397 288.2842520040716 H 0.0 **** 0.06
21781 C 247.1694175489103 69.22655843546568 42.7428050415071 C 0.0 **** -0.24
21782 H 248.1389755821026 69.30424699895883 43.23632511631769 H 0.0 **** 0.06
21783 H 246.9815596863982 68.18716342884807 42.4736456211852 H 0.0 **** 0.06
21784 H 247.17098291403087 69.84080219590777 41.84244205823262 H 0.0 **** 0.06
21785 H 246.38939821890682 69.57469842677222 43.41874862949413 H 0.0 **** 0.06
21786 C 178.70003245480433 249.9657139341711 282.0453593598386 C 0.0 **** -0.24
21787 H 179.63036956629213 249.8288732095586 281.4944266746922 H 0.0 **** 0.06
21788 H 178.64433449627325 249.23278843544145 282.8512453989391 H 0.0 **** 0.06
21789 H 177.85571344086378 249.82881114301665 281.37052799311476 H 0.0 **** 0.06
21790 H 178.67168173487977 250.97096655783622 282.4655768611532 H 0.0 **** 0.06
21791 C 306.3168534185794 53.37852886476918 259.51089805881367 C 0.0 **** -0.24
21792 H 306.8496365193616 52.7786947000364 258.7736596386775 H 0.0 **** 0.06
21793 H 306.7577704778027 54.37481327870805 259.55396622240175 H 0.0 **** 0.06
21794 H 306.39432916851007 52.90375593856206 260.4896419130873 H 0.0 **** 0.06
21795 H 305.26780085567145 53.4565869945142 259.2275167023242 H 0.0 **** 0.06
21796 C 301.02413303922276 150.44421425954005 7.285026750938869 C 0.0 **** -0.24
21797 H 300.40006238244825 149.76382614238253 6.705073150908163 H 0.0 **** 0.06
21798 H 301.32685793932905 149.9585158113573 8.211960403443697 H 0.0 **** 0.06
21799 H 300.45849287129965 151.34752249412372 7.514486520387891 H 0.0 **** 0.06
21800 H 301.90897918627206 150.7077271217072 6.705606680918891 H 0.0 **** 0.06
21801 C 277.44128821959214 239.86175834662458 272.3465053338384 C 0.0 **** -0.24
21802 H 278.4428220779406 240.2488275171713 272.5345126165473 H 0.0 **** 0.06
21803 H 277.51056218622267 238.9423682610069 271.76453081466394 H 0.0 **** 0.06
21804 H 276.8640211026851 240.6004890602913 271.79142520112333 H 0.0 **** 0.06
21805 H 276.9486937569008 239.6547744658872 273.2964330770193 H 0.0 **** 0.06
21806 C 167.54964551218507 18.062040598058275 250.26931566717002 C 0.0 **** -0.24
21807 H 168.0820872495899 18.962364190146317 250.57448213271275 H 0.0 **** 0.06
21808 H 168.2287980334866 17.404690413760093 249.72718843657017 H 0.0 **** 0.06
21809 H 166.71522422449925 18.33487911715673 249.62288809257853 H 0.0 **** 0.06
21810 H 167.17175140267437 17.546405677435317 251.15203420642817 H 0.0 **** 0.06
21811 C 179.1777347811472 153.79341429635338 93.40616914786898 C 0.0 **** -0.24
21812 H 178.78094352706142 152.89592431350917 92.92964025062116 H 0.0 **** 0.06
21813 H 178.70184052824487 154.67462122518958 92.97507477084343 H 0.0 **** 0.06
21814 H 180.25413180184978 153.84421947488244 93.24305987066435 H 0.0 **** 0.06
21815 H 178.97305431160999 153.75593226297406 94.47635387711904 H 0.0 **** 0.06
21816 C 124.40532135570368 1.1031239063840417 296.93654851982797 C 0.0 **** -0.24
21817 H 123.53364645897733 1.7318468846730894 296.7528622538807 H 0.0 **** 0.06
21818 H 124.56643826294288 1.0104657906401258 298.0103083454112 H 0.0 **** 0.06
21819 H 125.28271212036844 1.5549682515871552 296.4736570807429 H 0.0 **** 0.06
21820 H 124.2359359772453 0.11518844482846191 296.507790465346 H 0.0 **** 0.06
21821 C 246.87641705051738 124.87879516855139 70.24927493742936 C 0.0 **** -0.24
21822 H 247.0899502780354 125.94210103158201 70.14609283264511 H 0.0 **** 0.06
21823 H 246.7574054412442 124.43491613275026 69.26018545986653 H 0.0 **** 0.06
21824 H 245.9576150360337 124.7453833912424 70.81994077991874 H 0.0 **** 0.06
21825 H 247.70148568260535 124.39138949680739 70.76931706681611 H 0.0 **** 0.06
21826 C 13.757069292274537 301.4636088413169 285.3527151516453 C 0.0 **** -0.24
21827 H 12.932293893753013 301.1385716394367 285.98746763295946 H 0.0 **** 0.06
21828 H 13.78006605464077 302.55262184724904 285.31569933572354 H 0.0 **** 0.06
21829 H 13.61799851943448 301.06744036093477 284.3471445661803 H 0.0 **** 0.06
21830 H 14.697672942162626 301.0938393258935 285.76199455883346 H 0.0 **** 0.06
21831 C 255.05424084604584 231.26021599612096 198.09172161963187 C 0.0 **** -0.24
21832 H 254.64681749273242 232.0064580792597 197.41010566351935 H 0.0 **** 0.06
21833 H 254.71964040808038 231.47400407106358 199.10744971393586 H 0.0 **** 0.06
21834 H 256.14339483748284 231.28869513492978 198.0541467180609 H 0.0 **** 0.06
21835 H 254.70621697703618 230.2697735961475 197.79586591875346 H 0.0 **** 0.06
21836 C 261.28502135126735 47.76937985548523 86.89269230898577 C 0.0 **** -0.24
21837 H 260.5656520423194 48.316146584528695 86.28169533781883 H 0.0 **** 0.06
21838 H 261.6295529430309 46.89028001073132 86.34855832464834 H 0.0 **** 0.06
21839 H 260.8091181965517 47.45936631978583 87.82217288320945 H 0.0 **** 0.06
21840 H 262.1343297030708 48.41520495551566 87.11638096591784 H 0.0 **** 0.06
21841 C 210.66992365085372 1.3796686085723024 272.22463724493775 C 0.0 **** -0.24
21842 H 210.15485644000404 2.288331207410053 272.5371454881376 H 0.0 **** 0.06
21843 H 211.31448159274206 1.6022627036806654 271.373168345407 H 0.0 **** 0.06
21844 H 209.93571958350594 0.6271192195235784 271.9380920447765 H 0.0 **** 0.06
21845 H 211.2736593587985 1.00358947981546 273.0497730082266 H 0.0 **** 0.06
21846 C 176.55729745924742 63.040164254048705 194.35880962618086 C 0.0 **** -0.24
21847 H 176.95558391328848 63.058013034264945 193.34505636973398 H 0.0 **** 0.06
21848 H 176.04187083604194 63.97932162440753 194.56415856725243 H 0.0 **** 0.06
21849 H 177.37507978872083 62.912520543494594 195.0684725724517 H 0.0 **** 0.06
21850 H 175.85660648060468 62.21138117509389 194.4588401680944 H 0.0 **** 0.06
21851 C 225.15709746323253 80.3337300326464 236.17450642975416 C 0.0 **** -0.24
21852 H 225.0491430672721 80.32657654464109 235.08991386768727 H 0.0 **** 0.06
21853 H 225.93153198881726 81.04693215122404 236.45816160248998 H 0.0 **** 0.06
21854 H 225.43638811513097 79.33849319024557 236.51839551533783 H 0.0 **** 0.06
21855 H 224.2111259660306 80.62421485565764 236.63208248501778 H 0.0 **** 0.06
21856 C 86.5909719029867 264.73493488364176 42.479355556595834 C 0.0 **** -0.24
21857 H 85.70414020114384 264.1241429850647 42.64891127017856 H 0.0 **** 0.06
21858 H 87.444675117842 264.28312303742575 42.98606971044421 H 0.0 **** 0.06
21859 H 86.42318757465114 265.73757393132524 42.87374839771863 H 0.0 **** 0.06
21860 H 86.79203473896683 264.794584111404 41.41006324283887 H 0.0 **** 0.06
21861 C 189.07413237139303 285.9153286143225 170.2948931775398 C 0.0 **** -0.24
21862 H 189.48070225469786 285.2385523367514 169.54441190325963 H 0.0 **** 0.06
21863 H 188.13864790116247 286.340840925306 169.9303901825088 H 0.0 **** 0.06
21864 H 189.78815355985216 286.7168809372263 170.48496413149468 H 0.0 **** 0.06
21865 H 188.8893668226799 285.3665111218945 171.21815717033508 H 0.0 **** 0.06
21866 C 25.410037260580907 251.4479861311229 153.88235312670122 C 0.0 **** -0.24
21867 H 25.212721812838822 250.4315289616801 154.2237030778145 H 0.0 **** 0.06
21868 H 26.386932497070035 251.48619278041076 153.40154204770346 H 0.0 **** 0.06
21869 H 25.39852378586997 252.1258122369323 154.73595406427864 H 0.0 **** 0.06
21870 H 24.64189054852045 251.74819410392104 153.17019994913994 H 0.0 **** 0.06
21871 C 263.24910934024444 39.077467724961025 186.96775209593818 C 0.0 **** -0.24
21872 H 262.60513802945735 39.936416577560294 187.15319794773563 H 0.0 **** 0.06
21873 H 262.8094554396379 38.45611836876492 186.1868828496539 H 0.0 **** 0.06
21874 H 263.34830315281005 38.49418504782409 187.8830822304107 H 0.0 **** 0.06
21875 H 264.23245081716135 39.42227038010208 186.6476536428503 H 0.0 **** 0.06
21876 C 79.44720666280858 204.09433476364484 191.8750246763446 C 0.0 **** -0.24
21877 H 80.12257017853472 204.76330748511805 191.34071486536698 H 0.0 **** 0.06
21878 H 79.57227602817176 204.23503648843814 192.94949246860966 H 0.0 **** 0.06
21879 H 79.67832967404081 203.06108902329248 191.6144354452715 H 0.0 **** 0.06
21880 H 78.41768598434857 204.31828783881843 191.59629982793365 H 0.0 **** 0.06
21881 C 301.39220521190884 236.10667977722096 166.99553704930725 C 0.0 **** -0.24
21882 H 301.29841825671207 235.13078530407793 166.5196386019398 H 0.0 **** 0.06
21883 H 302.3390817639175 236.15874880776153 167.5340200726468 H 0.0 **** 0.06
21884 H 300.56813757242014 236.25021591316806 167.69558651943566 H 0.0 **** 0.06
21885 H 301.36264965428114 236.88600411070715 166.2348482846806 H 0.0 **** 0.06
21886 C 123.39569273824583 203.6140080207822 87.28592301857697 C 0.0 **** -0.24
21887 H 122.49762987456478 204.2124388220501 87.13818672809023 H 0.0 **** 0.06
21888 H 124.27689080720518 204.23870077866252 87.13786804899772 H 0.0 **** 0.06
21889 H 123.40779671468218 202.79295235566633 86.56922472938945 H 0.0 **** 0.06
21890 H 123.4010714939343 203.21128020609103 88.29883995827583 H 0.0 **** 0.06
21891 C 112.08566068968662 182.54925566961748 296.1660105927718 C 0.0 **** -0.24
21892 H 111.55709326294613 183.4084478709966 296.57640013578765 H 0.0 **** 0.06
21893 H 112.42331845853553 182.7790684637805 295.15506318363356 H 0.0 **** 0.06
21894 H 111.41647680340077 181.68879584150852 296.13865800080646 H 0.0 **** 0.06
21895 H 112.94681116530205 182.31940320389316 296.79350406090487 H 0.0 **** 0.06
21896 C 20.13090599930767 135.7585528026417 85.88752359919147 C 0.0 **** -0.24
21897 H 20.22818751830718 135.2694095572875 84.91795949889934 H 0.0 **** 0.06
21898 H 19.775150386793158 135.0372518243076 86.6232478633506 H 0.0 **** 0.06
21899 H 19.419044749673645 136.58003038272045 85.80919419947432 H 0.0 **** 0.06
21900 H 21.101142269905722 136.14706594295797 86.19656480620179 H 0.0 **** 0.06
21901 C 63.83049920523388 282.16338103299927 2.2075223423448023 C 0.0 **** -0.24
21902 H 62.814701342842426 281.8923488595683 2.497335418376977 H 0.0 **** 0.06
21903 H 63.98318460191089 283.2287041456554 2.3782653713901993 H 0.0 **** 0.06
21904 H 63.977592326727574 281.9391107408846 1.1513127054979009 H 0.0 **** 0.06
21905 H 64.5422197020182 281.59264514059345 2.803084111148806 H 0.0 **** 0.06
21906 C 108.01801583130424 269.36206239456476 223.07565273116703 C 0.0 **** -0.24
21907 H 108.32238069933223 269.98930197969986 223.91351840048333 H 0.0 **** 0.06
21908 H 106.93651322509149 269.22657591593935 223.0980776866756 H 0.0 **** 0.06
21909 H 108.50757909435114 268.3909095685758 223.15213379089943 H 0.0 **** 0.06
21910 H 108.30584270631431 269.84076896097224 222.14008762944135 H 0.0 **** 0.06
21911 C 47.35573778110509 291.4207020006436 124.364653190464 C 0.0 **** -0.24
21912 H 48.10107186596869 291.8106981191051 123.67201513479785 H 0.0 **** 0.06
21913 H 46.621778442695785 290.8314625782624 123.81391645879987 H 0.0 **** 0.06
21914 H 46.855631477091606 292.2497749017111 124.86521003937924 H 0.0 **** 0.06
21915 H 47.845661311524964 290.79038688591186 125.10688505517962 H 0.0 **** 0.06
21916 C 186.47259696919502 304.6897592217902 256.1630740715474 C 0.0 **** -0.24
21917 H 186.13195059986043 305.5725873553197 255.6224254925649 H 0.0 **** 0.06
21918 H 186.67490630146472 303.886176863541 255.45455047975506 H 0.0 **** 0.06
21919 H 185.69892678803467 304.372188213619 256.8621087311538 H 0.0 **** 0.06
21920 H 187.38283022058846 304.92778284805354 256.71233860325873 H 0.0 **** 0.06
21921 C 275.4043611425147 134.5840305246588 154.73187094193008 C 0.0 **** -0.24
21922 H 275.90043398835996 135.13127932468493 153.93046478325613 H 0.0 **** 0.06
21923 H 274.480832162023 135.0960263936766 155.00241447421013 H 0.0 **** 0.06
21924 H 276.0613721829928 134.5355639904182 155.59998489503892 H 0.0 **** 0.06
21925 H 275.17422866363705 133.57369707133898 154.39304841145258 H 0.0 **** 0.06
21926 C 46.221120698669665 167.52130022585254 147.83775872150073 C 0.0 **** -0.24
21927 H 46.74338925263805 167.9178792560881 146.9665182353297 H 0.0 **** 0.06
21928 H 46.40216805982726 166.44902182236507 147.91294002811324 H 0.0 **** 0.06
21929 H 45.15185931985104 167.7037838788138 147.73292471988756 H 0.0 **** 0.06
21930 H 46.58822804421595 168.0167430317602 148.7370117317243 H 0.0 **** 0.06
21931 C 207.20192188657109 57.41344249864082 200.10620633683953 C 0.0 **** -0.24
21932 H 207.9448162958128 57.10088053384109 199.3714095818301 H 0.0 **** 0.06
21933 H 207.06038666686328 56.618766478724496 200.83918120544627 H 0.0 **** 0.06
21934 H 206.25668833277626 57.616682593684914 199.60262482041855 H 0.0 **** 0.06
21935 H 207.54657125986287 58.31609287166839 200.61000238705418 H 0.0 **** 0.06
21936 C 57.24363607775615 221.0778188985958 165.14477511221685 C 0.0 **** -0.24
21937 H 57.0292081257424 221.64183438070933 166.05245707123026 H 0.0 **** 0.06
21938 H 56.719433214751035 221.5319984341529 164.30327902624435 H 0.0 **** 0.06
21939 H 56.90866723825431 220.04860929780165 165.26841498486078 H 0.0 **** 0.06
21940 H 58.31668310431175 221.0908651697879 164.95419645987187 H 0.0 **** 0.06
21941 C 146.24484355964185 19.552464840291364 193.9883014809604 C 0.0 **** -0.24
21942 H 147.3232500144005 19.394724296471495 194.01529761444328 H 0.0 **** 0.06
21943 H 145.7497807508112 18.781801486036116 194.5801005725137 H 0.0 **** 0.06
21944 H 145.8965788975719 19.49888045758175 192.95680752111855 H 0.0 **** 0.06
21945 H 146.00994292223066 20.53405403822032 194.40010081045023 H 0.0 **** 0.06
21946 C 18.310590753107476 281.156188262204 73.77366542581606 C 0.0 **** -0.24
21947 H 17.492951463318803 281.69308624986473 73.29415224937082 H 0.0 **** 0.06
21948 H 19.001960596965986 281.87048750853 74.22208786172635 H 0.0 **** 0.06
21949 H 18.837667802911767 280.55782504343216 73.03091810046251 H 0.0 **** 0.06
21950 H 17.91054566936681 280.5027684432115 74.5495222585298 H 0.0 **** 0.06
21951 C 2.827459792867245 23.449699723411584 164.58997330156456 C 0.0 **** -0.24
21952 H 3.758464240966589 23.58784259738829 165.13998749695162 H 0.0 **** 0.06
21953 H 2.361081245857946 22.513623025951773 164.89479096971849 H 0.0 **** 0.06
21954 H 3.0383172886776606 23.421259673111507 163.52094587914655 H 0.0 **** 0.06
21955 H 2.1528179521796886 24.279105329664617 164.80385195919342 H 0.0 **** 0.06
21956 C 76.5805866765046 171.2240926035571 138.46158982130925 C 0.0 **** -0.24
21957 H 76.7381855748603 171.00497487409814 139.51817837078806 H 0.0 **** 0.06
21958 H 76.34096647757323 172.281116805061 138.34259254766627 H 0.0 **** 0.06
21959 H 75.75547472545284 170.61947146038938 138.08465760858093 H 0.0 **** 0.06
21960 H 77.48715245139508 170.99078053628398 137.90370155073003 H 0.0 **** 0.06
21961 C 179.45601922881139 117.40878891235218 57.66603203055223 C 0.0 **** -0.24
21962 H 179.31228195439496 117.72011750484054 56.630964662115815 H 0.0 **** 0.06
21963 H 178.48515551617288 117.29522661586546 58.14832613806351 H 0.0 **** 0.06
21964 H 180.03972389128313 118.16259487805218 58.19395227160888 H 0.0 **** 0.06
21965 H 179.98594039114312 116.45657119066584 57.68873273375971 H 0.0 **** 0.06
21966 C 88.40103549216568 234.3390500172564 72.48390686085213 C 0.0 **** -0.24
21967 H 88.13979324316762 234.32331567567147 73.54192967104859 H 0.0 **** 0.06
21968 H 89.32223034447142 233.7761985943519 72.33025246340836 H 0.0 **** 0.06
21969 H 88.5464469846483 235.37016031678098 72.16050710560702 H 0.0 **** 0.06
21970 H 87.59692536037304 233.88608960239537 71.90473753810616 H 0.0 **** 0.06
21971 C 109.96032760806708 177.4626966329293 63.58245002852706 C 0.0 **** -0.24
21972 H 110.51804177271077 177.61871289646228 64.50563158378827 H 0.0 **** 0.06
21973 H 110.65649636182866 177.37211492032748 62.748088971384675 H 0.0 **** 0.06
21974 H 109.29667810506533 178.31065242614977 63.4124510255665 H 0.0 **** 0.06
21975 H 109.3695181024087 176.55058278561745 63.665056361736674 H 0.0 **** 0.06
21976 C 254.22924198207596 221.66862118499353 238.5944362057243 C 0.0 **** -0.24
21977 H 253.3831949785794 221.04941428878192 238.29824094532162 H 0.0 **** 0.06
21978 H 255.1336444805206 221.06007060028054 238.61629162916955 H 0.0 **** 0.06
21979 H 254.0458454004307 222.08456118461564 239.58444527358387 H 0.0 **** 0.06
21980 H 254.3540130483091 222.47988160942384 237.87749544598014 H 0.0 **** 0.06
21981 C 77.02351631952027 44.61012680683396 303.4362317337159 C 0.0 **** -0.24
21982 H 77.17833931535526 45.30945204174597 304.25830497193454 H 0.0 **** 0.06
21983 H 77.84891697244092 44.69236221207359 302.72912675567363 H 0.0 **** 0.06
21984 H 76.08648390299462 44.84685832266749 302.9312378781282 H 0.0 **** 0.06
21985 H 76.97830554001169 43.59441460076482 303.82677243761435 H 0.0 **** 0.06
21986 C 45.75089318504433 313.05546781618455 208.66564408954832 C 0.0 **** -0.24
21987 H 45.78811379242933 313.90913170431384 209.34224437153804 H 0.0 **** 0.06
21988 H 44.83257391913145 312.4947915983604 208.8388152550237 H 0.0 **** 0.06
21989 H 46.61084851137224 312.41125692451516 208.84801873777315 H 0.0 **** 0.06
21990 H 45.77323214478827 313.40842301130164 207.63475129697952 H 0.0 **** 0.06
21991 C 300.96908944372655 261.3466485693925 164.77248272869014 C 0.0 **** -0.24
21992 H 301.24233251083626 262.0574639320479 163.99356419006114 H 0.0 **** 0.06
21993 H 301.47674439517544 260.39827901701915 164.5919584932857 H 0.0 **** 0.06
21994 H 299.8906919998932 261.18976443421013 164.75896719857707 H 0.0 **** 0.06
21995 H 301.267098730339 261.7396435702757 165.74415383618935 H 0.0 **** 0.06
21996 C 25.114907502808137 105.51549172756717 228.35832492787432 C 0.0 **** -0.24
21997 H 24.877549674366605 105.93804924791942 229.33565228451482 H 0.0 **** 0.06
21998 H 24.205114231171194 105.1264959151155 227.90105825418811 H 0.0 **** 0.06
21999 H 25.83672646611484 104.70819233355454 228.4777209816669 H 0.0 **** 0.06
22000 H 25.53959822059187 106.29134204598097 227.72089930091423 H 0.0 **** 0.06
22001 C 173.39556979167844 88.30686474527585 106.16547274640087 C 0.0 **** -0.24
22002 H 172.78129490624218 88.16332205789695 107.05482319221818 H 0.0 **** 0.06
22003 H 173.96814981989405 89.22826006604319 106.2647759069007 H 0.0 **** 0.06
22004 H 172.7520677244339 88.37123002271565 105.28740181782828 H 0.0 **** 0.06
22005 H 174.07748098189325 87.4636644130207 106.05537879415346 H 0.0 **** 0.06
22006 C 277.7377102004552 288.1005003271157 266.77487188890683 C 0.0 **** -0.24
22007 H 276.77550381233914 288.06154151917065 266.264908728643 H 0.0 **** 0.06
22008 H 277.58426812219807 287.98920580610536 267.8484879330843 H 0.0 **** 0.06
22009 H 278.21720953733757 289.0578438100581 266.5727229639003 H 0.0 **** 0.06
22010 H 278.3734151999534 287.2923585263545 266.41253318655544 H 0.0 **** 0.06
22011 C 29.07743525140137 273.61245120680115 194.62025057495396 C 0.0 **** -0.24
22012 H 29.46033370861352 272.6811814116405 195.03876305289492 H 0.0 **** 0.06
22013 H 28.21654336692208 273.3987152716931 193.9857929570946 H 0.0 **** 0.06
22014 H 29.856946658004603 274.09123451071406 194.0266026404376 H 0.0 **** 0.06
22015 H 28.777198188904606 274.27851240701915 195.4292663564051 H 0.0 **** 0.06
22016 C 310.9226882345622 162.61076325207472 65.1874279626268 C 0.0 **** -0.24
22017 H 311.26785809005895 162.24214776545267 64.22190958374395 H 0.0 **** 0.06
22018 H 311.5598650605914 163.4344173915277 65.51078829530064 H 0.0 **** 0.06
22019 H 310.9685752919206 161.8067896122363 65.9218849821113 H 0.0 **** 0.06
22020 H 309.894695192515 162.9608208248966 65.09595474665755 H 0.0 **** 0.06
22021 C 87.34234634784514 147.6295649850469 182.29822262760672 C 0.0 **** -0.24
22022 H 87.38126511026812 148.3540604258876 181.48489364421943 H 0.0 **** 0.06
22023 H 86.51412855839465 146.9404361690305 182.13189127173172 H 0.0 **** 0.06
22024 H 87.19631975050066 148.15285225587598 183.24342790535673 H 0.0 **** 0.06
22025 H 88.27873345407573 147.07184443701223 182.33272381386507 H 0.0 **** 0.06
22026 C 157.5741463878386 313.0867458756779 73.15315608618269 C 0.0 **** -0.24
22027 H 157.88559364276045 312.61259241882476 72.22212737604693 H 0.0 **** 0.06
22028 H 157.95039011229233 314.10891699780797 73.18381882204753 H 0.0 **** 0.06
22029 H 157.97509747953683 312.525838473891 73.99764140907052 H 0.0 **** 0.06
22030 H 156.48581436837782 313.0981038060653 73.20829011081193 H 0.0 **** 0.06
22031 C 217.01863139192014 108.04670181629206 252.41282972401177 C 0.0 **** -0.24
22032 H 217.70395673483435 108.81744184072937 252.06077811273835 H 0.0 **** 0.06
22033 H 216.77495441723985 108.22888362289166 253.45959267334746 H 0.0 **** 0.06
22034 H 217.48924383635918 107.06833357573032 252.31328141846222 H 0.0 **** 0.06
22035 H 216.10564028398812 108.07265142213296 251.8172046668189 H 0.0 **** 0.06
22036 C 98.21565489604805 201.17851431977402 63.75728997624108 C 0.0 **** -0.24
22037 H 99.09901084703702 200.56420227489508 63.92972930555197 H 0.0 **** 0.06
22038 H 97.85181978696579 201.01413099099585 62.743214297131544 H 0.0 **** 0.06
22039 H 98.47384415523854 202.22964971801565 63.88533696069331 H 0.0 **** 0.06
22040 H 97.43868963559643 200.90488630511862 64.47069521931849 H 0.0 **** 0.06
22041 C 235.3005360137928 53.66574792598723 270.410711401236 C 0.0 **** -0.24
22042 H 235.42531544914158 53.80683964323589 271.4839912187322 H 0.0 **** 0.06
22043 H 235.13964848124266 54.63287953163416 269.9338529195968 H 0.0 **** 0.06
22044 H 234.44004290697967 53.02202228553975 270.22678678241994 H 0.0 **** 0.06
22045 H 236.1967983990484 53.20198735157669 269.9993730807573 H 0.0 **** 0.06
22046 C 157.78514478127602 145.43908244144484 202.75182298570058 C 0.0 **** -0.24
22047 H 157.7664243384134 144.4508702098652 202.2926656284888 H 0.0 **** 0.06
22048 H 158.54058390026535 146.05318653934305 202.26019075451114 H 0.0 **** 0.06
22049 H 158.02687984909096 145.3435365517472 203.8108194418354 H 0.0 **** 0.06
22050 H 156.8081522782888 145.90914376613495 202.64278011914848 H 0.0 **** 0.06
22051 C 262.9588808652055 13.265546240070904 270.21282225500465 C 0.0 **** -0.24
22052 H 263.008487648421 14.104712047230123 269.5194066059771 H 0.0 **** 0.06
22053 H 263.131121918444 12.335274318955342 269.67089004035006 H 0.0 **** 0.06
22054 H 261.9739676710239 13.237974575415492 270.67978923097115 H 0.0 **** 0.06
22055 H 263.72201514994816 13.384909301474607 270.982438312979 H 0.0 **** 0.06
22056 C 117.61272364397047 236.08089154481775 237.0489659985824 C 0.0 **** -0.24
22057 H 116.70344422964942 235.98797617886763 236.45432405964647 H 0.0 **** 0.06
22058 H 118.35129210654873 236.66093782452202 236.49487368382984 H 0.0 **** 0.06
22059 H 118.01205618587758 235.08881096333783 237.25855843306036 H 0.0 **** 0.06
22060 H 117.38370192879421 236.5860679293529 237.98677046650425 H 0.0 **** 0.06
22061 C 229.0598896656331 168.2427867869735 305.6280755625459 C 0.0 **** -0.24
22062 H 229.1918140541551 169.28372538661347 305.92225430874237 H 0.0 **** 0.06
22063 H 230.03564084239264 167.77763289515883 305.4888353141617 H 0.0 **** 0.06
22064 H 228.49993999362994 168.1984253573928 304.6934185223427 H 0.0 **** 0.06
22065 H 228.51185089397347 167.71214430926227 306.40572227478924 H 0.0 **** 0.06
22066 C 197.18121687244422 45.80413283598537 282.60330139589246 C 0.0 **** -0.24
22067 H 198.0440056523646 46.020716805610135 281.97350916459226 H 0.0 **** 0.06
22068 H 197.22276684606436 44.765518259968644 282.93142288582374 H 0.0 **** 0.06
22069 H 196.26620455253556 45.97018764104891 282.03604166761045 H 0.0 **** 0.06
22070 H 197.19302397316756 46.46184165058435 283.47307554047137 H 0.0 **** 0.06
22071 C 29.252811639549776 144.18165845221912 273.5321962437099 C 0.0 **** -0.24
22072 H 30.331974104432874 144.15112260580491 273.38321542384614 H 0.0 **** 0.06
22073 H 29.008235139359215 144.95025633015172 274.26469469632525 H 0.0 **** 0.06
22074 H 28.90876062918568 143.21215946307427 273.89286224363593 H 0.0 **** 0.06
22075 H 28.762381313050128 144.4116422827722 272.58631629230024 H 0.0 **** 0.06
22076 C 152.4021612826436 213.8256199531138 285.28376036063423 C 0.0 **** -0.24
22077 H 151.55779466740785 213.87445934749678 285.9720728529874 H 0.0 **** 0.06
22078 H 152.2702355905763 212.98020888499855 284.6082560385914 H 0.0 **** 0.06
22079 H 153.32494260426301 213.69957035959777 285.8502111380077 H 0.0 **** 0.06
22080 H 152.45340140228888 214.7484132475347 284.7064542607722 H 0.0 **** 0.06
22081 C 269.2929929408091 221.61759514909124 285.919116700506 C 0.0 **** -0.24
22082 H 269.0918997019194 221.7681831367753 286.97956665935794 H 0.0 **** 0.06
22083 H 270.3246035116057 221.89774660773253 285.70233767114803 H 0.0 **** 0.06
22084 H 268.61695110881584 222.23718508827267 285.33006483715394 H 0.0 **** 0.06
22085 H 269.1391264004282 220.56896845954225 285.6653520422145 H 0.0 **** 0.06
22086 C 75.00716130574921 218.05586364334343 210.63237097344148 C 0.0 **** -0.24
22087 H 75.62386852472665 218.524842725544 211.3984017638295 H 0.0 **** 0.06
22088 H 75.64395365671695 217.50006358410195 209.9428848216417 H 0.0 **** 0.06
22089 H 74.46079711642122 218.82389482086597 210.08513370150393 H 0.0 **** 0.06
22090 H 74.29959671345162 217.37299876365654 211.10334258272172 H 0.0 **** 0.06
22091 C 87.74820022717262 108.80171094613652 307.94569889223516 C 0.0 **** -0.24
22092 H 87.28347608782511 107.94020677427511 307.46624463392914 H 0.0 **** 0.06
22093 H 88.59427933798193 109.13802707932086 307.34574310188987 H 0.0 **** 0.06
22094 H 88.09545715276721 108.52107597648185 308.94013641769186 H 0.0 **** 0.06
22095 H 87.01844379787337 109.60755832659393 308.02984107757675 H 0.0 **** 0.06
22096 C 141.44737938606295 251.66138766718083 186.50222918168987 C 0.0 **** -0.24
22097 H 141.1380800463944 250.7127925950895 186.93977192520418 H 0.0 **** 0.06
22098 H 142.431879437603 251.93410258409966 186.8825153543669 H 0.0 **** 0.06
22099 H 140.7279044786958 252.4357123951239 186.76912134135506 H 0.0 **** 0.06
22100 H 141.4904313993204 251.5636546117972 185.4175033528839 H 0.0 **** 0.06
22101 C 159.59584032274267 19.771466980230926 30.005257578265287 C 0.0 **** -0.24
22102 H 160.249950087468 19.451782577416395 29.193855920819374 H 0.0 **** 0.06
22103 H 159.77528026111588 20.824823123703368 30.222459091180895 H 0.0 **** 0.06
22104 H 159.80282749470422 19.176557598842834 30.89451428247446 H 0.0 **** 0.06
22105 H 158.55603022274363 19.633221088072787 29.70910326235696 H 0.0 **** 0.06
22106 C 188.11996383954897 179.02068735649465 192.9450551272477 C 0.0 **** -0.24
22107 H 189.0289161508042 178.41952661904264 192.92653992320112 H 0.0 **** 0.06
22108 H 187.47672504679076 178.73216315588206 192.11302628377518 H 0.0 **** 0.06
22109 H 188.38037584485687 180.0753006887591 192.85538541847586 H 0.0 **** 0.06
22110 H 187.5944666814538 178.85460528357652 193.88579251600152 H 0.0 **** 0.06
22111 C 211.24583876711654 141.33260931431442 33.51238956969246 C 0.0 **** -0.24
22112 H 211.8665357287267 140.56020359794147 33.96667586903928 H 0.0 **** 0.06
22113 H 210.69253588283502 141.85686788143795 34.29164256041025 H 0.0 **** 0.06
22114 H 210.54553101460684 140.87228435843957 32.815215747772186 H 0.0 **** 0.06
22115 H 211.8790128583612 142.03935376667218 32.97774090858729 H 0.0 **** 0.06
22116 C 108.82454732107706 286.5546637278033 192.16778363355286 C 0.0 **** -0.24
22117 H 108.03542586550068 286.9245139596777 192.82187344452586 H 0.0 **** 0.06
22118 H 109.33859187402732 285.7240888985532 192.65333178608137 H 0.0 **** 0.06
22119 H 109.53505357396435 287.35588336003985 191.96676793438627 H 0.0 **** 0.06
22120 H 108.38777260630542 286.2127165787814 191.2288761030108 H 0.0 **** 0.06
22121 C 217.47154947750457 96.0002711179801 243.25871233114714 C 0.0 **** -0.24
22122 H 218.21329951041258 95.33539409783847 242.81497728469378 H 0.0 **** 0.06
22123 H 217.7754844916362 97.03574025056665 243.10553748894276 H 0.0 **** 0.06
22124 H 217.39610847595605 95.79825536660641 244.32680251361901 H 0.0 **** 0.06
22125 H 216.50362596738356 95.83172339650483 242.78674825012502 H 0.0 **** 0.06
22126 C 246.97900022117676 50.05123730855553 129.97311384113664 C 0.0 **** -0.24
22127 H 246.18257728052237 50.454235360005896 129.34770004301325 H 0.0 **** 0.06
22128 H 247.73893002809342 49.591039975750164 129.34048088304024 H 0.0 **** 0.06
22129 H 246.56663820351605 49.30270328502837 130.64872669335455 H 0.0 **** 0.06
22130 H 247.42826089791913 50.85649010402733 130.5531803231399 H 0.0 **** 0.06
22131 C 63.14104646202418 231.6307096590944 112.56817853612623 C 0.0 **** -0.24
22132 H 62.706462573745455 232.61020303001493 112.36995409796288 H 0.0 **** 0.06
22133 H 62.34902874765584 230.9285421024921 112.82998001814167 H 0.0 **** 0.06
22134 H 63.845828184878485 231.70804918485146 113.39675724449131 H 0.0 **** 0.06
22135 H 63.66221390756505 231.2775595635652 111.67938112078221 H 0.0 **** 0.06
22136 C 1.5262431586476737 257.08660507752677 2.486058849411222 C 0.0 **** -0.24
22137 H 2.529703986320385 256.6605488440369 2.483450247906376 H 0.0 **** 0.06
22138 H 1.0943448778836 257.0027912575422 1.488272563045939 H 0.0 **** 0.06
22139 H 1.5774997263480373 258.13611078755713 2.7736816458501607 H 0.0 **** 0.06
22140 H 0.9041045823645391 256.54424832797156 3.1977667223483195 H 0.0 **** 0.06
22141 C 40.12565437570365 195.24348065397766 232.4803103612448 C 0.0 **** -0.24
22142 H 39.57313914215314 196.16825142231573 232.3135731625096 H 0.0 **** 0.06
22143 H 39.46185438019856 194.39205097874373 232.3307763409237 H 0.0 **** 0.06
22144 H 40.512257213081966 195.229054807929 233.49982029027768 H 0.0 **** 0.06
22145 H 40.956329206375216 195.18470723437918 231.7768401331095 H 0.0 **** 0.06
22146 C 207.09143494964957 158.56121129190439 188.65835548530583 C 0.0 **** -0.24
22147 H 206.10167860862896 158.10494377895157 188.68930213156852 H 0.0 **** 0.06
22148 H 207.30556029588382 158.89490419558717 187.64310392469378 H 0.0 **** 0.06
22149 H 207.83808389843978 157.830421442425 188.96695374699226 H 0.0 **** 0.06
22150 H 207.11827817729278 159.41500236312675 189.3361221133032 H 0.0 **** 0.06
22151 C 182.05870796031832 122.77305449893066 104.21681396686503 C 0.0 **** -0.24
22152 H 183.14510548053426 122.7127026851822 104.15568758551092 H 0.0 **** 0.06
22153 H 181.77766790962932 123.61362230255924 104.85169160045018 H 0.0 **** 0.06
22154 H 181.66800615703244 121.84881122994227 104.64321030035526 H 0.0 **** 0.06
22155 H 181.64546796065775 122.91639165091414 103.21940858057368 H 0.0 **** 0.06
22156 C 153.58059273802098 198.83461023022176 16.637718355645532 C 0.0 **** -0.24
22157 H 153.44672538423663 198.8671021954043 15.555513124219786 H 0.0 **** 0.06
22158 H 152.9724979640725 199.6114413945873 17.101678957122033 H 0.0 **** 0.06
22159 H 154.63030680670505 199.00297990896433 16.877956517887384 H 0.0 **** 0.06
22160 H 153.27373704189176 197.8589358203708 17.011709489304607 H 0.0 **** 0.06
22161 C 241.41669983787713 296.13331949341546 108.02027801919803 C 0.0 **** -0.24
22162 H 242.2770250745895 295.6843705466324 108.51762265276727 H 0.0 **** 0.06
22163 H 241.75564795191676 296.7153639639106 107.16364638454365 H 0.0 **** 0.06
22164 H 240.89353166358387 296.7858662960274 108.71959631857743 H 0.0 **** 0.06
22165 H 240.74161945576054 295.34722226549064 107.68242453818436 H 0.0 **** 0.06
22166 C 196.7543989337981 187.67849329128046 115.53204494843698 C 0.0 **** -0.24
22167 H 196.9506875307099 188.08127174552777 114.53848385184986 H 0.0 **** 0.06
22168 H 196.34959431517024 188.46478272627184 116.16867081343415 H 0.0 **** 0.06
22169 H 197.68408712745844 187.30422196043162 115.96197074263398 H 0.0 **** 0.06
22170 H 196.0342420063335 186.86331949074645 115.45709811654223 H 0.0 **** 0.06
22171 C 175.03033276572063 81.84581108655297 19.659950117941065 C 0.0 **** -0.24
22172 H 175.3664884865002 82.58331181770947 20.388487935043884 H 0.0 **** 0.06
22173 H 175.66402849714206 80.96038890559893 19.721037241553802 H 0.0 **** 0.06
22174 H 175.09304456099915 82.27047129801753 18.658308324179657 H 0.0 **** 0.06
22175 H 173.9977517426022 81.56832982303047 19.874076093443293 H 0.0 **** 0.06
22176 C 141.69050688876573 134.94511140902858 115.24236573332382 C 0.0 **** -0.24
22177 H 142.77650820426166 134.8933003684395 115.16962574791597 H 0.0 **** 0.06
22178 H 141.26773316298795 135.09836091087578 114.24921100264763 H 0.0 **** 0.06
22179 H 141.4090493430046 135.77407756138453 115.89023385977436 H 0.0 **** 0.06
22180 H 141.3103339547914 134.0125119761989 115.65959731079533 H 0.0 **** 0.06
22181 C 306.2810508389073 245.71881605348733 19.653944605601907 C 0.0 **** -0.24
22182 H 306.5777826639246 246.5693592172421 20.26844676587791 H 0.0 **** 0.06
22183 H 306.3935445685513 244.79904957633036 20.22902124727301 H 0.0 **** 0.06
22184 H 306.91367155333774 245.67316216079269 18.76783563888023 H 0.0 **** 0.06
22185 H 305.2403246510568 245.83422780525032 19.352334797650087 H 0.0 **** 0.06
22186 C 110.00306859696127 312.08097418358903 261.0008938159547 C 0.0 **** -0.24
22187 H 109.71900253699451 311.5314892545938 261.8986277065669 H 0.0 **** 0.06
22188 H 109.274443752953 312.86932428490695 260.8116207198975 H 0.0 **** 0.06
22189 H 110.03002794011078 311.39907200600067 260.15093089665044 H 0.0 **** 0.06
22190 H 110.98967643101162 312.523202359151 261.1431561701114 H 0.0 **** 0.06
22191 C 27.27835445882397 286.00327333901214 276.4735136081772 C 0.0 **** -0.24
22192 H 26.85812068216967 286.40524011949594 275.5513364926199 H 0.0 **** 0.06
22193 H 28.333817277945514 286.27128128990097 276.53752402819845 H 0.0 **** 0.06
22194 H 27.17675782144147 284.91879798582613 276.47721144275505 H 0.0 **** 0.06
22195 H 26.744876218635795 286.42093248364506 277.3279790321738 H 0.0 **** 0.06
22196 C 279.8068304208755 25.45527251247276 81.24713771060405 C 0.0 **** -0.24
22197 H 279.7386103195268 25.744124002410075 82.29580170972221 H 0.0 **** 0.06
22198 H 278.83774859233097 25.089784847797688 80.90802338669309 H 0.0 **** 0.06
22199 H 280.55204988794065 24.668576118071343 81.13573271806047 H 0.0 **** 0.06
22200 H 280.09845979203027 26.32009872719337 80.6508808197272 H 0.0 **** 0.06
22201 C 34.40204489460629 152.26670274936623 121.37593159322938 C 0.0 **** -0.24
22202 H 33.65545338575927 152.36855527602222 120.58894904753777 H 0.0 **** 0.06
22203 H 34.93820772545672 151.32671960483526 121.24811745676777 H 0.0 **** 0.06
22204 H 33.90737060725425 152.27362441053123 122.34812900021916 H 0.0 **** 0.06
22205 H 35.10460994901928 153.0980377705294 121.31977310502884 H 0.0 **** 0.06
22206 C 230.89763708323477 310.9946433711137 49.35512391592988 C 0.0 **** -0.24
22207 H 230.32119215039558 310.7025613643789 48.476414807056216 H 0.0 **** 0.06
22208 H 230.62827937212933 310.3536641582328 50.19532593191752 H 0.0 **** 0.06
22209 H 230.6779088969103 312.0322313023525 49.604485409119775 H 0.0 **** 0.06
22210 H 231.96108467418816 310.8885084560673 49.142829433604106 H 0.0 **** 0.06
22211 C 46.51005016442673 125.39151757752305 225.9027581974158 C 0.0 **** -0.24
22212 H 46.69731752053366 125.23978560521616 224.83961770951476 H 0.0 **** 0.06
22213 H 45.79951195072829 126.20840395988307 226.033247430885 H 0.0 **** 0.06
22214 H 47.445493173192034 125.63840543254878 226.40481408491837 H 0.0 **** 0.06
22215 H 46.09712090097446 124.47860904539505 226.33253114632296 H 0.0 **** 0.06
22216 C 260.7047896268127 40.4343856093823 90.67826879640432 C 0.0 **** -0.24
22217 H 259.830369941191 41.08289510928674 90.64336916643919 H 0.0 **** 0.06
22218 H 260.3852651574621 39.39244694824947 90.65288590654563 H 0.0 **** 0.06
22219 H 261.26044593112863 40.62146907018189 91.59705723740564 H 0.0 **** 0.06
22220 H 261.3437809051401 40.63940509061467 89.81889896223143 H 0.0 **** 0.06
22221 C 283.10150734435234 283.27379753489674 160.8767982007351 C 0.0 **** -0.24
22222 H 283.21796270478956 283.80645660750383 159.93356821486827 H 0.0 **** 0.06
22223 H 283.5245863099832 282.2727243649615 160.7839108779562 H 0.0 **** 0.06
22224 H 282.04277806935875 283.199345735974 161.12495259124637 H 0.0 **** 0.06
22225 H 283.62211584602824 283.8159078131233 161.6670915578943 H 0.0 **** 0.06
22226 C 136.548730507878 151.41028062688622 192.88157089598673 C 0.0 **** -0.24
22227 H 137.49992559442566 151.59116505819168 192.3818108776302 H 0.0 **** 0.06
22228 H 136.4341624586821 150.34166556675086 193.06729480895416 H 0.0 **** 0.06
22229 H 135.7326840612425 151.75824113735712 192.24848715059363 H 0.0 **** 0.06
22230 H 136.52784453945205 151.9480159134494 193.82956609043396 H 0.0 **** 0.06
22231 C 259.7316177199103 53.318423585933516 238.72628975494092 C 0.0 **** -0.24
22232 H 259.70729769792365 53.76194250231566 239.72211045222625 H 0.0 **** 0.06
22233 H 260.46102054795347 52.50828930104797 238.7070204112614 H 0.0 **** 0.06
22234 H 260.0128259803318 54.07868016915134 237.9974617967861 H 0.0 **** 0.06
22235 H 258.7446398565892 52.926516852907696 238.47928740136132 H 0.0 **** 0.06
22236 C 95.7965610412659 277.8931337206886 26.78607197000673 C 0.0 **** -0.24
22237 H 96.82609460825876 278.1758276905281 27.00579020758164 H 0.0 **** 0.06
22238 H 95.4221193514231 277.2435040363149 27.57862294893866 H 0.0 **** 0.06
22239 H 95.76008131079831 277.36409184358604 25.83444532806385 H 0.0 **** 0.06
22240 H 95.17921970678918 278.78924568675507 26.728946076106695 H 0.0 **** 0.06
22241 C 63.389145020561784 234.78833461163958 154.02470938426904 C 0.0 **** -0.24
22242 H 63.113944774390006 235.76912205339644 153.6358042901262 H 0.0 **** 0.06
22243 H 62.70249773017514 234.03764687785622 153.63259361322037 H 0.0 **** 0.06
22244 H 63.332503530033904 234.80054490464116 155.1133149150578 H 0.0 **** 0.06
22245 H 64.40626343649814 234.54848164502792 153.71608335046648 H 0.0 **** 0.06
22246 C 134.81566201631367 65.26123949489354 40.047434391251926 C 0.0 **** -0.24
22247 H 135.45713738093463 64.4743976804304 39.64964591870947 H 0.0 **** 0.06
22248 H 134.7079781021723 65.12996336899764 41.12545392548711 H 0.0 **** 0.06
22249 H 133.83581252454698 65.20386230080413 39.57489743538855 H 0.0 **** 0.06
22250 H 135.26327118561483 66.23310650775616 39.84227619447199 H 0.0 **** 0.06
22251 C 152.71612553245308 0.26612556115870234 26.75643906333741 C 0.0 **** -0.24
22252 H 152.3845307170925 1.2679981455879386 26.483674415802483 H 0.0 **** 0.06
22253 H 152.47465594429946 -0.42880467954661583 25.952091036061972 H 0.0 **** 0.06
22254 H 152.21266259747688 -0.04638987046205045 27.670922811130822 H 0.0 **** 0.06
22255 H 153.79424263378002 0.273224081456803 26.919449739784994 H 0.0 **** 0.06
22256 C 206.30957915837115 2.138158303989215 112.45266490065629 C 0.0 **** -0.24
22257 H 206.10267577858838 1.8855151028254653 113.49250082682613 H 0.0 **** 0.06
22258 H 206.82494918393155 1.3056070539511921 111.9719617588895 H 0.0 **** 0.06
22259 H 206.93932510274084 3.027481948194122 112.41314458229022 H 0.0 **** 0.06
22260 H 205.37136656822366 2.3340291109861084 111.93305243461916 H 0.0 **** 0.06
22261 C 182.29349531679054 258.1757448882599 160.0143132693745 C 0.0 **** -0.24
22262 H 181.36841529494137 258.3850101576714 160.55253474357482 H 0.0 **** 0.06
22263 H 182.08558959170693 258.11850441656634 158.94483017100714 H 0.0 **** 0.06
22264 H 182.7060851318579 257.22726999425015 160.3558690666324 H 0.0 **** 0.06
22265 H 183.01105427905281 258.97398676110276 160.20315816986601 H 0.0 **** 0.06
22266 C 212.9360692425995 32.3079102568764 302.22655084732924 C 0.0 **** -0.24
22267 H 212.5352122480197 32.98470574647533 301.4725131284225 H 0.0 **** 0.06
22268 H 213.0325916585777 32.83730193174148 303.17521160553724 H 0.0 **** 0.06
22269 H 213.9160949322976 31.950427339236626 301.90902137559056 H 0.0 **** 0.06
22270 H 212.2624822066775 31.460361117054134 302.3499457697786 H 0.0 **** 0.06
22271 C 306.07685338794033 172.97322757968698 246.75377983139413 C 0.0 **** -0.24
22272 H 306.224234701618 172.7123850592451 245.70586748923498 H 0.0 **** 0.06
22273 H 305.8778060237447 172.0682564242553 247.32844991752933 H 0.0 **** 0.06
22274 H 305.23152091412896 173.65395880526216 246.84349241611577 H 0.0 **** 0.06
22275 H 306.9755054542874 173.45680477405654 247.13731459196157 H 0.0 **** 0.06
22276 C 171.74269262455937 6.456248279306635 75.6770964817226 C 0.0 **** -0.24
22277 H 172.6806537217899 5.921704104790933 75.82133533730075 H 0.0 **** 0.06
22278 H 170.919080203127 5.741695573979655 75.6452787387658 H 0.0 **** 0.06
22279 H 171.7798510215526 7.0088891277843 74.73858399176942 H 0.0 **** 0.06
22280 H 171.58962394348293 7.151068443961435 76.50224693042418 H 0.0 **** 0.06
22281 C 86.09548911321428 296.5895016100221 74.80725832212579 C 0.0 **** -0.24
22282 H 86.20670325518927 295.6293685153573 74.30307263553956 H 0.0 **** 0.06
22283 H 86.58297807939465 296.5455674064175 75.78223865670844 H 0.0 **** 0.06
22284 H 85.03647573386209 296.80846399613984 74.94051177139744 H 0.0 **** 0.06
22285 H 86.55609610329918 297.3720160914534 74.20499954640897 H 0.0 **** 0.06
22286 C 137.19253789846093 59.858948049482876 26.936600187418122 C 0.0 **** -0.24
22287 H 136.24769257868743 60.020273353551914 26.41896343097241 H 0.0 **** 0.06
22288 H 137.24947605212796 60.51853863016021 27.803095234744347 H 0.0 **** 0.06
22289 H 138.0191742318271 60.0767994152597 26.259411505850693 H 0.0 **** 0.06
22290 H 137.25499522438412 58.82143627977459 27.26480402630085 H 0.0 **** 0.06
22291 C 259.9358002021115 15.828909176932143 171.29653540552027 C 0.0 **** -0.24
22292 H 260.81073951996297 16.43649098232123 171.06661175027045 H 0.0 **** 0.06
22293 H 259.53355006886 16.123598408613304 172.26538804315868 H 0.0 **** 0.06
22294 H 260.2225480629774 14.777414164050356 171.3265563167123 H 0.0 **** 0.06
22295 H 259.17790034201573 15.97734969620069 170.52743296524994 H 0.0 **** 0.06
22296 C 150.91409547166302 101.25546191931505 184.5455086259284 C 0.0 **** -0.24
22297 H 150.9955819713793 100.44268642711512 183.82430803226117 H 0.0 **** 0.06
22298 H 151.48680332860835 102.1131541553417 184.19140257834965 H 0.0 **** 0.06
22299 H 151.30586943981223 100.92845813987361 185.50846087511832 H 0.0 **** 0.06
22300 H 149.866823130044 101.53879513985632 184.65654143340254 H 0.0 **** 0.06
22301 C 261.06439362602043 217.98345347834402 193.5643885646163 C 0.0 **** -0.24
22302 H 260.25076705684756 218.70613508622358 193.6295993868955 H 0.0 **** 0.06
22303 H 261.2773683754172 217.58636983957678 194.55761597882315 H 0.0 **** 0.06
22304 H 261.95456980523255 218.47314625456318 193.16953453473553 H 0.0 **** 0.06
22305 H 260.7738446293672 217.16777529230927 192.90169879486228 H 0.0 **** 0.06
22306 C 208.59577449641694 197.15495932316577 189.07005116626357 C 0.0 **** -0.24
22307 H 208.69115537463784 196.09170477699234 188.8509470680483 H 0.0 **** 0.06
22308 H 208.78369758951854 197.73060376662795 188.1633154059101 H 0.0 **** 0.06
22309 H 209.3185275975597 197.435611792869 189.83581320070937 H 0.0 **** 0.06
22310 H 207.58751137070516 197.36223892776894 189.4299566944784 H 0.0 **** 0.06
22311 C 215.57799999910534 226.544483124935 25.12470062147574 C 0.0 **** -0.24
22312 H 215.68960195827879 226.39167723819924 26.198343818950462 H 0.0 **** 0.06
22313 H 216.1088304352125 225.75713105355092 24.589298795845963 H 0.0 **** 0.06
22314 H 215.99294741834544 227.51458633701668 24.850814243601832 H 0.0 **** 0.06
22315 H 214.52061028898794 226.51400595308613 24.861655961219668 H 0.0 **** 0.06
22316 C 297.8678151925066 176.39614251430703 70.11569897720466 C 0.0 **** -0.24
22317 H 296.9059313250634 176.8086223807568 70.42098922817658 H 0.0 **** 0.06
22318 H 298.4015598498029 176.03078515070774 70.99396203282961 H 0.0 **** 0.06
22319 H 298.45836512420703 177.17238612097935 69.6290368856107 H 0.0 **** 0.06
22320 H 297.70584163219064 175.5732112401957 69.42042634853743 H 0.0 **** 0.06
22321 C 134.16188505924313 49.048800790252926 87.81948040644073 C 0.0 **** -0.24
22322 H 133.38965846840804 49.03370486461486 88.58836307223328 H 0.0 **** 0.06
22323 H 133.9208110933747 49.812417381331386 87.07926732939185 H 0.0 **** 0.06
22324 H 134.21025454549562 48.0742244150901 87.33484897248303 H 0.0 **** 0.06
22325 H 135.12511704253825 49.276171875238845 88.27606105151543 H 0.0 **** 0.06
22326 C 107.65662027247382 284.47903474782913 79.93664413115664 C 0.0 **** -0.24
22327 H 108.18961331097108 284.08246985649 79.07248554740588 H 0.0 **** 0.06
22328 H 108.26391381252259 285.2477015972403 80.41593546896698 H 0.0 **** 0.06
22329 H 107.46392942672375 283.6739160139738 80.64517811692309 H 0.0 **** 0.06
22330 H 106.71061796805543 284.9128989819052 79.6121155221646 H 0.0 **** 0.06
22331 C 268.64580178256597 300.8545636480319 267.25566270560444 C 0.0 **** -0.24
22332 H 268.5386666950494 301.8968300602035 267.5577126240052 H 0.0 **** 0.06
22333 H 269.16118388740836 300.3002582421941 268.039829876307 H 0.0 **** 0.06
22334 H 269.22376687016566 300.8022116985912 266.3326074612896 H 0.0 **** 0.06
22335 H 267.6589716415006 300.42099898993797 267.09183867700847 H 0.0 **** 0.06
22336 C 114.85925346113285 110.45807409174463 241.22024950899927 C 0.0 **** -0.24
22337 H 115.85504981908795 110.65770503046525 240.8252514723508 H 0.0 **** 0.06
22338 H 114.90375871333754 110.40598164444171 242.3083832380164 H 0.0 **** 0.06
22339 H 114.49624447908329 109.50872806840007 240.82574860990903 H 0.0 **** 0.06
22340 H 114.18198871781021 111.25888257994856 240.92164845858935 H 0.0 **** 0.06
22341 C 286.5337462088796 21.909776559506128 161.38224372468875 C 0.0 **** -0.24
22342 H 286.3600233484222 22.853410888738154 161.90025431748955 H 0.0 **** 0.06
22343 H 287.52030807151294 21.5285916042518 161.6464483280045 H 0.0 **** 0.06
22344 H 286.4827671395566 22.071782895439213 160.30584536500044 H 0.0 **** 0.06
22345 H 285.7732191277302 21.188388184042935 161.6781046930061 H 0.0 **** 0.06
22346 C 171.47112104091042 250.8476490251624 216.334650048715 C 0.0 **** -0.24
22347 H 171.64883330428762 249.82567487347768 216.67065233786298 H 0.0 **** 0.06
22348 H 171.06347963672255 251.43466772588988 217.15715346925515 H 0.0 **** 0.06
22349 H 170.762508031003 250.83777620914915 215.5068720128378 H 0.0 **** 0.06
22350 H 172.41101131486528 251.28869136994007 216.0030007277711 H 0.0 **** 0.06
22351 C 159.06545329556945 207.98022650438992 66.10693131579066 C 0.0 **** -0.24
22352 H 160.12927119426087 207.746169253236 66.09673206281849 H 0.0 **** 0.06
22353 H 158.6609298887982 207.78602053299915 67.10110746284491 H 0.0 **** 0.06
22354 H 158.54955499810063 207.35756076645248 65.37661996340185 H 0.0 **** 0.06
22355 H 158.92163361843882 209.030876056985 65.85492185596775 H 0.0 **** 0.06
22356 C 93.36987090404205 74.44881937182979 130.64840590929668 C 0.0 **** -0.24
22357 H 94.19387488137443 74.82966820920123 130.0444307760669 H 0.0 **** 0.06
22358 H 92.48622690949725 74.32664238232167 130.02156826948985 H 0.0 **** 0.06
22359 H 93.15344829727243 75.15226387690001 131.45141862793915 H 0.0 **** 0.06
22360 H 93.64887560069536 73.48501513587061 131.07498313180292 H 0.0 **** 0.06
22361 C 211.65620524171192 135.07141265197376 253.17946656095552 C 0.0 **** -0.24
22362 H 211.8122882162391 135.23336409159657 254.24556467179875 H 0.0 **** 0.06
22363 H 210.85922147626508 135.7266263762335 252.82458740748734 H 0.0 **** 0.06
22364 H 211.3753894157029 134.03217867245414 253.00763362197983 H 0.0 **** 0.06
22365 H 212.57658740883892 135.29342430070562 252.63961580103881 H 0.0 **** 0.06
22366 C 7.465855557214198 40.056231890235665 307.59753027929486 C 0.0 **** -0.24
22367 H 7.718180940351758 39.1628586338737 307.0264020317071 H 0.0 **** 0.06
22368 H 7.349994893843004 40.901055573997354 306.91850995522043 H 0.0 **** 0.06
22369 H 8.261204761696561 40.26871142649401 308.3109357972969 H 0.0 **** 0.06
22370 H 6.531718604463563 39.890713105940335 308.13399186610934 H 0.0 **** 0.06
22371 C 92.21930996375843 76.14600481996493 108.9245453944275 C 0.0 **** -0.24
22372 H 92.49744205786561 75.31016968723824 108.2829438693802 H 0.0 **** 0.06
22373 H 91.13902766141749 76.14436059666565 109.0747412676551 H 0.0 **** 0.06
22374 H 92.51903218517143 77.08176700623363 108.45358991139963 H 0.0 **** 0.06
22375 H 92.7204743658834 76.04713950929545 109.88715966811995 H 0.0 **** 0.06
22376 C 102.11124862080334 269.5471090242385 160.2805933596892 C 0.0 **** -0.24
22377 H 101.32260298455333 269.1959884042392 160.9455149469992 H 0.0 **** 0.06
22378 H 101.70186906632654 269.7064855666297 159.28292715845788 H 0.0 **** 0.06
22379 H 102.90456235913157 268.8003816908739 160.2334769408219 H 0.0 **** 0.06
22380 H 102.51739461207126 270.4846216117288 160.66187663657666 H 0.0 **** 0.06
22381 C 271.5167353063106 41.36834740904544 75.00342339449537 C 0.0 **** -0.24
22382 H 270.432149541139 41.438748362815915 74.9174886740368 H 0.0 **** 0.06
22383 H 271.77822731587565 40.467502629459574 75.55906533349597 H 0.0 **** 0.06
22384 H 271.8952991624605 42.24359903362631 75.53164243213749 H 0.0 **** 0.06
22385 H 271.9589724302115 41.324440514884316 74.00880343952167 H 0.0 **** 0.06
22386 C 272.1599564731159 284.9255261554638 188.86418794990482 C 0.0 **** -0.24
22387 H 271.6671775896783 283.9992987144018 188.5660821698106 H 0.0 **** 0.06
22388 H 271.79622172425445 285.2310664225017 189.84532225693943 H 0.0 **** 0.06
22389 H 271.9382428543618 285.7051829220459 188.13545360365714 H 0.0 **** 0.06
22390 H 273.2372684791943 284.76571567044823 188.9092190577793 H 0.0 **** 0.06
22391 C 141.9294498192127 130.88110373327248 239.9331416526018 C 0.0 **** -0.24
22392 H 142.49310103977948 129.95945906503246 239.79398796144292 H 0.0 **** 0.06
22393 H 142.61632415789285 131.6951235529325 240.1643271300094 H 0.0 **** 0.06
22394 H 141.22552465676648 130.75569675598456 240.75616097673526 H 0.0 **** 0.06
22395 H 141.3826287101979 131.11488239169185 239.0196376494452 H 0.0 **** 0.06
22396 C 303.536592124289 238.73314829525916 10.44789574586163 C 0.0 **** -0.24
22397 H 302.92278534902033 239.02629036488895 11.299304177385167 H 0.0 **** 0.06
22398 H 303.2435867567222 237.73796965904586 10.114647065635054 H 0.0 **** 0.06
22399 H 304.5856404029187 238.72454118913328 10.742383391023637 H 0.0 **** 0.06
22400 H 303.39284632600106 239.44618336631572 9.635201775542768 H 0.0 **** 0.06
22401 C 118.04625116272933 179.26070161016412 196.3151613029503 C 0.0 **** -0.24
22402 H 117.3453408729358 178.43759690737772 196.4482994141312 H 0.0 **** 0.06
22403 H 118.39722010316297 179.27650212921583 195.2831160043374 H 0.0 **** 0.06
22404 H 118.89537369880784 179.1264652223748 196.9854753054671 H 0.0 **** 0.06
22405 H 117.54826978801125 180.2024589769403 196.54447104908945 H 0.0 **** 0.06
22406 C 150.02680987366756 85.76940242503787 93.72520175070974 C 0.0 **** -0.24
22407 H 149.9787402654914 85.32015941163078 92.73286895320595 H 0.0 **** 0.06
22408 H 150.66902077407815 85.1654740872147 94.36597321584594 H 0.0 **** 0.06
22409 H 149.02555899547622 85.81428584697477 94.15245051033426 H 0.0 **** 0.06
22410 H 150.43412628460305 86.77796539532471 93.64781679896439 H 0.0 **** 0.06
22411 C 261.87331386397807 68.52893195394648 145.42724227989538 C 0.0 **** -0.24
22412 H 261.5156557177295 67.54374785265327 145.72551612067625 H 0.0 **** 0.06
22413 H 261.27526723688726 68.89560714087355 144.59407010028247 H 0.0 **** 0.06
22414 H 262.91769752936204 68.45919182060027 145.12271900612112 H 0.0 **** 0.06
22415 H 261.7863251700052 69.2168793144198 146.26809645586945 H 0.0 **** 0.06
22416 C 33.97805041191671 58.05522639285769 306.37632605646684 C 0.0 **** -0.24
22417 H 34.248119738196095 58.43902476849112 307.35947035411186 H 0.0 **** 0.06
22418 H 34.70512175878517 58.39617466414185 305.63983717048563 H 0.0 **** 0.06
22419 H 32.9865775401521 58.418247410810636 306.1044572686655 H 0.0 **** 0.06
22420 H 33.97059640566215 56.965156891931116 306.4022543196274 H 0.0 **** 0.06
22421 C 114.61805368415554 239.70559232572123 107.81297488935087 C 0.0 **** -0.24
22422 H 113.97695335302868 239.53275397730445 108.67812090381955 H 0.0 **** 0.06
22423 H 114.92246160871832 238.74846675694005 107.38885484340693 H 0.0 **** 0.06
22424 H 115.50233738794628 240.26309815856445 108.12356776211516 H 0.0 **** 0.06
22425 H 114.07105528025392 240.27860584938114 107.06486888498108 H 0.0 **** 0.06
22426 C 194.99524138588964 38.002523642730864 155.492805977868 C 0.0 **** -0.24
22427 H 194.20141821783892 37.56107123400557 154.88958387757276 H 0.0 **** 0.06
22428 H 194.60219303711784 38.26435095321125 156.475051773892 H 0.0 **** 0.06
22429 H 195.36934714705984 38.90073116934957 155.00034737688583 H 0.0 **** 0.06
22430 H 195.80750978511867 37.285097019949205 155.60559531435888 H 0.0 **** 0.06
22431 C 126.95580368977244 166.71600632068134 17.22739818310818 C 0.0 **** -0.24
22432 H 127.3921157552364 165.79510472833158 16.84032146025774 H 0.0 **** 0.06
22433 H 126.49576801082338 166.52040819295468 18.196785568637637 H 0.0 **** 0.06
22434 H 126.19813057025607 167.0794976442931 16.532629260986113 H 0.0 **** 0.06
22435 H 127.73649167917876 167.4682207445813 17.34122293572412 H 0.0 **** 0.06
22436 C 308.8923929425464 27.14959938011441 287.4422669029147 C 0.0 **** -0.24
22437 H 309.2054176850984 27.616063114420683 286.5089489300071 H 0.0 **** 0.06
22438 H 308.27634517886196 26.277329817247903 287.22397738845444 H 0.0 **** 0.06
22439 H 308.31560383828537 27.864318647154505 288.02991565156606 H 0.0 **** 0.06
22440 H 309.77193639912394 26.841321941177966 288.0078141425462 H 0.0 **** 0.06
22441 C 80.97923893144386 142.97914718281228 26.174820824374194 C 0.0 **** -0.24
22442 H 81.76212478180636 143.45656294996135 26.7639161303062 H 0.0 **** 0.06
22443 H 81.06767671222931 143.29164899625255 25.133560178487812 H 0.0 **** 0.06
22444 H 80.00325675996166 143.2723795824781 26.561510506760612 H 0.0 **** 0.06
22445 H 81.08537632686034 141.89608678363888 26.239399277180382 H 0.0 **** 0.06
22446 C 67.42395311975329 129.37264001120045 255.813676951518 C 0.0 **** -0.24
22447 H 67.34945599564776 130.14957408004165 255.05223228180031 H 0.0 **** 0.06
22448 H 67.96368582543715 128.51727316536244 255.40688521495878 H 0.0 **** 0.06
22449 H 66.42348641073511 129.06179105533036 256.1134078934581 H 0.0 **** 0.06
22450 H 67.95862673243053 129.76309474408066 256.67881888990775 H 0.0 **** 0.06
22451 C 46.85785827938133 121.7799708855546 161.18573318093286 C 0.0 **** -0.24
22452 H 47.6427567895181 122.53461659441348 161.12020806594933 H 0.0 **** 0.06
22453 H 46.22675185321498 121.98701111695851 162.04890313112327 H 0.0 **** 0.06
22454 H 47.31048727849668 120.7944509850513 161.29419913800996 H 0.0 **** 0.06
22455 H 46.25489245448205 121.80496961583827 160.27878300515397 H 0.0 **** 0.06
22456 C 184.37433486002845 145.3555178972913 10.293130479411573 C 0.0 **** -0.24
22457 H 183.48125625216073 145.96028114476258 10.135598372185683 H 0.0 **** 0.06
22458 H 184.78063443453533 145.55926088968022 11.283795810552945 H 0.0 **** 0.06
22459 H 185.11863260953515 145.60197461606396 9.535915651403116 H 0.0 **** 0.06
22460 H 184.11417367947132 144.29922190763415 10.216721725828862 H 0.0 **** 0.06
22461 C 259.2223306817405 84.71257127367718 22.08924312518053 C 0.0 **** -0.24
22462 H 258.50185895681875 84.4488274120061 22.864685597118864 H 0.0 **** 0.06
22463 H 259.6473010626572 83.80334697148822 21.664542416918152 H 0.0 **** 0.06
22464 H 260.0180461827725 85.31744015394861 22.524233733913547 H 0.0 **** 0.06
22465 H 258.7211515602006 85.28087478641615 21.305752885898926 H 0.0 **** 0.06
22466 C 234.94106555505482 12.101965643785746 236.96948186035758 C 0.0 **** -0.24
22467 H 234.56190163886086 11.120276119784464 237.2533194068485 H 0.0 **** 0.06
22468 H 235.43534622221006 12.561126065155804 237.82637198477184 H 0.0 **** 0.06
22469 H 234.11326544210806 12.732314664185665 236.64694282586427 H 0.0 **** 0.06
22470 H 235.6556444868266 11.993460513640827 236.15268510260506 H 0.0 **** 0.06
22471 C 195.35685326708767 106.77197758249983 223.35778501234446 C 0.0 **** -0.24
22472 H 196.23453534012856 106.1497208746193 223.18374445147757 H 0.0 **** 0.06
22473 H 194.62029453792553 106.20869888091292 223.93146933009712 H 0.0 **** 0.06
22474 H 194.92535319617963 107.06606900820591 222.40106286270563 H 0.0 **** 0.06
22475 H 195.64808868126335 107.66293444199789 223.91385079690943 H 0.0 **** 0.06
22476 C 143.02246990164315 209.4926653148541 282.10207352234926 C 0.0 **** -0.24
22477 H 143.94424518397165 209.11948661515777 281.6557436699952 H 0.0 **** 0.06
22478 H 142.5683623247644 208.70847660153626 282.7079957297243 H 0.0 **** 0.06
22479 H 142.33070804161218 209.7888080021474 281.31335786469225 H 0.0 **** 0.06
22480 H 143.24669806663462 210.35458560801396 282.7304909697233 H 0.0 **** 0.06
22481 C 201.35670350343742 144.62144936374716 127.80043329743219 C 0.0 **** -0.24
22482 H 202.36512370526748 144.8397139528729 127.44734461075566 H 0.0 **** 0.06
22483 H 201.4057517532409 144.21984077392068 128.81244276310485 H 0.0 **** 0.06
22484 H 200.89226994034846 143.8891088569726 127.14014760389773 H 0.0 **** 0.06
22485 H 200.7661322180026 145.5374279671858 127.80011173404077 H 0.0 **** 0.06
22486 C 8.17349854296532 308.1534314493192 275.6586514270289 C 0.0 **** -0.24
22487 H 7.275814828613591 307.572844814737 275.4446947460427 H 0.0 **** 0.06
22488 H 8.29537044205415 308.24938879953095 276.73798584288005 H 0.0 **** 0.06
22489 H 8.080895863016963 309.1432043993393 275.21253193948087 H 0.0 **** 0.06
22490 H 9.042343494181921 307.6454509234401 275.2385174102262 H 0.0 **** 0.06
22491 C 170.92163709143068 149.89969701321502 10.856709742067963 C 0.0 **** -0.24
22492 H 170.59238363113752 149.23914455038886 11.658134066504672 H 0.0 **** 0.06
22493 H 170.13654812530842 150.62434104415843 10.63726339210406 H 0.0 **** 0.06
22494 H 171.13095641616002 149.31013169745773 9.963473203426318 H 0.0 **** 0.06
22495 H 171.8248088693869 150.4243074440891 11.165771188776375 H 0.0 **** 0.06
22496 C 55.24858995179312 32.52077555066478 198.66206665953695 C 0.0 **** -0.24
22497 H 54.45903948242898 33.02431080533728 198.10376597354525 H 0.0 **** 0.06
22498 H 54.84680780303498 31.61941216718708 199.12594003679982 H 0.0 **** 0.06
22499 H 55.629369142913475 33.18851158152046 199.4344461955423 H 0.0 **** 0.06
22500 H 56.057215234145815 32.250696172414706 197.9826134721868 H 0.0 **** 0.06
22501 C 22.19378360654642 201.90394187153714 229.18230389507278 C 0.0 **** -0.24
22502 H 21.12121512199232 201.79703964580182 229.0191839651667 H 0.0 **** 0.06
22503 H 22.691533733760195 202.06704223061172 228.2259700425912 H 0.0 **** 0.06
22504 H 22.58341370574192 200.99654770061852 229.64446247966757 H 0.0 **** 0.06
22505 H 22.378413698957672 202.754531248484 229.83807579795007 H 0.0 **** 0.06
22506 C 218.18524064728894 86.7430474490476 305.2107277695225 C 0.0 **** -0.24
22507 H 218.04306312970755 87.69611872815764 304.702378445426 H 0.0 **** 0.06
22508 H 217.97150695732984 86.86266015756644 306.27351140976367 H 0.0 **** 0.06
22509 H 219.21643152797384 86.41303967997226 305.08257710625963 H 0.0 **** 0.06
22510 H 217.51145457645606 85.99982501355942 304.7860160014045 H 0.0 **** 0.06
22511 C 196.10811814422738 137.65855533159228 180.41059404227906 C 0.0 **** -0.24
22512 H 196.65764106242545 136.8400463544931 180.87710232012466 H 0.0 **** 0.06
22513 H 195.65244779059577 138.2767091228971 181.185111812201 H 0.0 **** 0.06
22514 H 195.33097576358892 137.2526579892001 179.76344613422538 H 0.0 **** 0.06
22515 H 196.79416292179144 138.26430926967942 179.8191981713121 H 0.0 **** 0.06
22516 C 118.72775713880091 171.40725171324715 305.87751878158787 C 0.0 **** -0.24
22517 H 119.47155974028331 171.13483979483738 306.6269057249358 H 0.0 **** 0.06
22518 H 117.73718517220044 171.11560010036317 306.2263623928259 H 0.0 **** 0.06
22519 H 118.94996876020875 170.89484748771918 304.9421176646598 H 0.0 **** 0.06
22520 H 118.75339891378192 172.4846601205951 305.71640400870945 H 0.0 **** 0.06
22521 C 11.745598768255064 165.54461468942668 70.63133880424436 C 0.0 **** -0.24
22522 H 11.2656168245326 166.06305662670326 71.46136810575345 H 0.0 **** 0.06
22523 H 11.2044870120057 164.6212682382427 70.41893409852767 H 0.0 **** 0.06
22524 H 12.775927276434075 165.30831946533556 70.8977277745031 H 0.0 **** 0.06
22525 H 11.735143584036706 166.18360006388554 69.74893995706424 H 0.0 **** 0.06
22526 C 81.81757369071272 275.2572570609698 124.66840306051154 C 0.0 **** -0.24
22527 H 82.74628757108906 274.89459501301536 124.22841088425469 H 0.0 **** 0.06
22528 H 81.99208255216024 276.22292898434296 125.14274338459293 H 0.0 **** 0.06
22529 H 81.46679961884126 274.5438440499356 125.41439553898937 H 0.0 **** 0.06
22530 H 81.06401067404829 275.36582989206744 123.8874234981462 H 0.0 **** 0.06
22531 C 16.887884225849575 82.64552136212049 300.2099719659325 C 0.0 **** -0.24
22532 H 15.838342639337156 82.589980217131 300.49949915099967 H 0.0 **** 0.06
22533 H 17.398797173021535 83.3785954013824 300.8348437662878 H 0.0 **** 0.06
22534 H 16.961076841530144 82.94403107031403 299.16444141028154 H 0.0 **** 0.06
22535 H 17.35258943123455 81.66895555947713 300.3415419089775 H 0.0 **** 0.06
22536 C 80.14232361791673 253.30091177581264 181.38927282741633 C 0.0 **** -0.24
22537 H 79.7440211982624 252.9960445367847 180.42180887633953 H 0.0 **** 0.06
22538 H 80.87518088021486 252.56797970060785 181.72708069801638 H 0.0 **** 0.06
22539 H 79.32952933693937 253.36126043010037 182.11282575937088 H 0.0 **** 0.06
22540 H 80.6186987158249 254.27601216891364 181.29539880283085 H 0.0 **** 0.06
22541 C 178.96547342150495 227.06234757201418 171.81676728498115 C 0.0 **** -0.24
22542 H 178.05551803543614 227.50528748670058 172.22259086846003 H 0.0 **** 0.06
22543 H 179.2701703447691 226.2233634000794 172.44166542885694 H 0.0 **** 0.06
22544 H 179.7571286665396 227.81138343236125 171.80065509863493 H 0.0 **** 0.06
22545 H 178.77761969958254 226.71105221647326 170.80216741197103 H 0.0 **** 0.06
22546 C 130.65766820715157 35.33599357983303 27.878431450011362 C 0.0 **** -0.24
22547 H 129.7807175351894 35.42996063050836 28.518786868107725 H 0.0 **** 0.06
22548 H 130.4171798545819 35.69499878169651 26.877882617634498 H 0.0 **** 0.06
22549 H 130.95965183339155 34.28947684117463 27.827206853939288 H 0.0 **** 0.06
22550 H 131.47341627057182 35.929084873004825 28.291775331929472 H 0.0 **** 0.06
22551 C 300.32772857882946 271.2946915979481 35.85999912521825 C 0.0 **** -0.24
22552 H 300.6882957353342 272.21367307414505 35.39891050287213 H 0.0 **** 0.06
22553 H 299.9715016886001 270.6153880827315 35.085013002330015 H 0.0 **** 0.06
22554 H 299.51207485918314 271.52680066971675 36.5442488859365 H 0.0 **** 0.06
22555 H 301.14082653123694 270.82179609542754 36.411058028492164 H 0.0 **** 0.06
22556 C 207.0673578862195 123.93953781130787 293.6281865075484 C 0.0 **** -0.24
22557 H 207.91504722732535 124.2647614243455 294.2310146180821 H 0.0 **** 0.06
22558 H 207.40463553866184 123.21162220155713 292.88963251183475 H 0.0 **** 0.06
22559 H 206.63293862419204 124.80016535057936 293.119236122103 H 0.0 **** 0.06
22560 H 206.31751889152673 123.48255893008616 294.2736259951816 H 0.0 **** 0.06
22561 C 99.26635134461404 188.01129044229975 211.59231022538512 C 0.0 **** -0.24
22562 H 98.41057863627057 187.6377235956025 212.15406304449323 H 0.0 **** 0.06
22563 H 99.22480132532277 189.1001592630895 211.54862221548137 H 0.0 **** 0.06
22564 H 99.24234168725354 187.60560732682922 210.58111039636202 H 0.0 **** 0.06
22565 H 100.18732568720878 187.70262221581748 212.0864291726302 H 0.0 **** 0.06
22566 C 7.560482924867358 196.9966236477606 124.07644970152953 C 0.0 **** -0.24
22567 H 6.727225071665828 196.95055556430475 123.37471083613872 H 0.0 **** 0.06
22568 H 7.566011097243518 196.09685812479177 124.69342117789964 H 0.0 **** 0.06
22569 H 7.450872884167097 197.8742288746982 124.71358787711355 H 0.0 **** 0.06
22570 H 8.49708562826413 197.0633883127419 123.52351823891661 H 0.0 **** 0.06
22571 C 256.49423408951355 244.8067637435218 121.4776165040179 C 0.0 **** -0.24
22572 H 256.2182727052771 244.7248678994843 120.42635310472471 H 0.0 **** 0.06
22573 H 255.68728889096639 245.28916156381473 122.0289522803603 H 0.0 **** 0.06
22574 H 257.40440405673115 245.40047962686234 121.56893153967314 H 0.0 **** 0.06
22575 H 256.6684395302995 243.81102633935492 121.88549863988797 H 0.0 **** 0.06
22576 C 70.09288915723184 294.66074607753643 160.94450058933404 C 0.0 **** -0.24
22577 H 70.5292148073737 294.57610715044814 161.93939180228818 H 0.0 **** 0.06
22578 H 69.13938333603647 294.13224420586675 160.91854340732732 H 0.0 **** 0.06
22579 H 70.77133525696269 294.2228946473801 160.21170841634364 H 0.0 **** 0.06
22580 H 69.93126835547488 295.7125905544764 160.70689321034035 H 0.0 **** 0.06
22581 C 77.95340890075528 71.36778603225741 161.78229514538242 C 0.0 **** -0.24
22582 H 78.33873492478472 71.57279059122109 162.78095191057832 H 0.0 **** 0.06
22583 H 77.10881721414131 72.02589282072668 161.57709599866564 H 0.0 **** 0.06
22584 H 77.62646609481362 70.32874301567355 161.7260068843276 H 0.0 **** 0.06
22585 H 78.737723580732 71.54229951860248 161.04576009819579 H 0.0 **** 0.06
22586 C 283.21604821833176 265.9109484597142 169.05695098170418 C 0.0 **** -0.24
22587 H 284.1055071703606 266.44886968606534 168.7291570279308 H 0.0 **** 0.06
22588 H 283.05844961012485 265.04414465247527 168.41551182927998 H 0.0 **** 0.06
22589 H 282.3502061914099 266.5705047819087 168.9961694589266 H 0.0 **** 0.06
22590 H 283.3503085534582 265.58163333626476 170.08724223239193 H 0.0 **** 0.06
22591 C 156.31790296948452 85.4186387468107 303.9562407929406 C 0.0 **** -0.24
22592 H 157.3500922586412 85.08247970616108 303.87076734695825 H 0.0 **** 0.06
22593 H 156.02715084416684 85.93835280303526 303.042401168766 H 0.0 **** 0.06
22594 H 156.22521563878547 86.09659481173091 304.80541509080604 H 0.0 **** 0.06
22595 H 155.6669334077606 84.5571819110599 304.10664392301203 H 0.0 **** 0.06
22596 C 87.79494559790024 198.90098832401355 107.29951182060091 C 0.0 **** -0.24
22597 H 87.22617681922475 198.26223410117842 106.62377779804436 H 0.0 **** 0.06
22598 H 87.9434696265352 198.38538658243897 108.24854017054727 H 0.0 **** 0.06
22599 H 87.2477567874796 199.82726754208426 107.47059530738241 H 0.0 **** 0.06
22600 H 88.76360792105834 199.1283981926917 106.85411154375123 H 0.0 **** 0.06
22601 C 33.08688620988295 139.8906073734289 308.4699937814594 C 0.0 **** -0.24
22602 H 33.00572629079062 139.81946456732067 307.3859000985925 H 0.0 **** 0.06
22603 H 33.997672119879354 139.38837528888786 308.79877686693305 H 0.0 **** 0.06
22604 H 32.22219296621799 139.41496422843286 308.9319499909219 H 0.0 **** 0.06
22605 H 33.125055932836176 140.93965455726433 308.7627367169241 H 0.0 **** 0.06
22606 C 246.37443660461673 137.7494687670168 10.251918948452769 C 0.0 **** -0.24
22607 H 247.2710265542793 137.40239295796493 9.738083180870632 H 0.0 **** 0.06
22608 H 245.95692347444762 136.93456490253533 10.844213497360371 H 0.0 **** 0.06
22609 H 245.6392300763062 138.0774724737377 9.517220862079753 H 0.0 **** 0.06
22610 H 246.63005021222426 138.58202033428108 10.907318766169979 H 0.0 **** 0.06
22611 C 306.7147957095556 60.82845298324651 142.94422839217435 C 0.0 **** -0.24
22612 H 307.50685176901885 60.60653259696096 143.65941011082157 H 0.0 **** 0.06
22613 H 306.20540259055247 59.9050358547907 142.66829577702208 H 0.0 **** 0.06
22614 H 307.14719090656445 61.28538609182431 142.05442342750726 H 0.0 **** 0.06
22615 H 305.999731974849 61.51733810323259 143.3956611155904 H 0.0 **** 0.06
22616 C 36.846822943724874 306.84228333891485 275.055665962441 C 0.0 **** -0.24
22617 H 36.76788617512989 306.8567572459855 273.96870283439114 H 0.0 **** 0.06
22618 H 36.22845701601153 306.03813730156014 275.4549641988884 H 0.0 **** 0.06
22619 H 36.50748662047246 307.79633201547404 275.45722209261135 H 0.0 **** 0.06
22620 H 37.88671855996574 306.67731745033126 275.34199221695087 H 0.0 **** 0.06
22621 C 95.13067856780947 172.20195073531482 19.944052894701287 C 0.0 **** -0.24
22622 H 95.67748199558798 173.12856177902154 19.771355668471728 H 0.0 **** 0.06
22623 H 95.05549494342571 171.64518702935095 19.00938078457061 H 0.0 **** 0.06
22624 H 94.13113728417014 172.43306308654525 20.311565684838143 H 0.0 **** 0.06
22625 H 95.65952318287327 171.6013754844726 20.683903615814344 H 0.0 **** 0.06
22626 C 96.48843063212075 277.0097900415228 96.05046550861206 C 0.0 **** -0.24
22627 H 95.91087001137544 277.6977415791583 96.66849848863365 H 0.0 **** 0.06
22628 H 97.24974340462597 277.5656302108234 95.50335133625504 H 0.0 **** 0.06
22629 H 95.82358964714945 276.51139449496463 95.34478024224344 H 0.0 **** 0.06
22630 H 96.96756384195908 276.26497946580776 96.68658572314507 H 0.0 **** 0.06
22631 C 124.25753537974512 306.90017819236317 109.33233936363735 C 0.0 **** -0.24
22632 H 123.26494504176301 307.32617008073646 109.4805982067146 H 0.0 **** 0.06
22633 H 124.18021886226256 306.0066110388943 108.71298304612986 H 0.0 **** 0.06
22634 H 124.68815592399687 306.6370154994504 110.29832005316459 H 0.0 **** 0.06
22635 H 124.89584400623835 307.6314564245206 108.83658882770084 H 0.0 **** 0.06
22636 C 213.37546834287514 58.13839728450478 264.49068741164484 C 0.0 **** -0.24
22637 H 213.9233574311952 58.20457903723715 265.4303958080362 H 0.0 **** 0.06
22638 H 213.82297876610605 57.36701979951624 263.86303659168954 H 0.0 **** 0.06
22639 H 213.4210804007929 59.09721977341533 263.9748266529991 H 0.0 **** 0.06
22640 H 212.33540146225636 57.88403217176935 264.6937406590039 H 0.0 **** 0.06
22641 C 76.77232471869797 28.655216235164033 220.37983189713628 C 0.0 **** -0.24
22642 H 77.77753051035862 28.785684340977923 219.97815324088455 H 0.0 **** 0.06
22643 H 76.05659799413883 28.616816737922704 219.55941792935988 H 0.0 **** 0.06
22644 H 76.5319822799116 29.493440379121694 221.03485720396 H 0.0 **** 0.06
22645 H 76.72612855357895 27.72547907202022 220.94711143392544 H 0.0 **** 0.06
22646 C 217.46738659593905 201.5757563451793 106.95358312292566 C 0.0 **** -0.24
22647 H 217.24151023572972 202.5340062381693 106.48568637916662 H 0.0 **** 0.06
22648 H 217.98516362559252 200.93593284479283 106.23828724678862 H 0.0 **** 0.06
22649 H 216.53983928870383 201.09690146170107 107.26479098934104 H 0.0 **** 0.06
22650 H 218.10261068361928 201.73743123746965 107.82505024340813 H 0.0 **** 0.06
22651 C 35.801441761473285 101.86599851235363 25.11939533349434 C 0.0 **** -0.24
22652 H 35.267134382444 100.9159467923983 25.120234368757593 H 0.0 **** 0.06
22653 H 36.865430008599645 101.68389462733856 25.27657848542964 H 0.0 **** 0.06
22654 H 35.4182611659499 102.49742512087877 25.92143487261808 H 0.0 **** 0.06
22655 H 35.654919991741394 102.36515938717369 24.162580234803812 H 0.0 **** 0.06
22656 C 313.8458798788229 257.51560174337845 266.4582473077046 C 0.0 **** -0.24
22657 H 314.22696524193566 258.2239960209585 265.7229767170284 H 0.0 **** 0.06
22658 H 314.493077737156 256.63905383700023 266.48684887340335 H 0.0 **** 0.06
22659 H 312.83577267714674 257.21224317850243 266.1808191591431 H 0.0 **** 0.06
22660 H 313.8267622127712 257.9864327392746 267.4401882579517 H 0.0 **** 0.06
22661 C 298.7951433802747 171.6168534242824 239.86597089781299 C 0.0 **** -0.24
22662 H 299.2981688730306 171.21549013749797 240.7449158387259 H 0.0 **** 0.06
22663 H 297.89376322078715 172.14829470931528 240.17389511889678 H 0.0 **** 0.06
22664 H 298.524302355488 170.79962213837985 239.19730617194506 H 0.0 **** 0.06
22665 H 299.4622079226076 172.3052133973091 239.347720195288 H 0.0 **** 0.06
22666 C 197.98083640287632 276.70304609972516 126.24711101644905 C 0.0 **** -0.24
22667 H 198.86872668619242 276.58285678234154 126.86813494864117 H 0.0 **** 0.06
22668 H 198.25039492229007 276.56743703878936 125.19917888975985 H 0.0 **** 0.06
22669 H 197.56814688185648 277.70112750256624 126.39156591972292 H 0.0 **** 0.06
22670 H 197.23716893991298 275.95781563088684 126.53102052120778 H 0.0 **** 0.06
22671 C 5.849058300245829 79.13590942246583 29.390073668166707 C 0.0 **** -0.24
22672 H 6.7087670996135955 79.73936171550145 29.680654910523998 H 0.0 **** 0.06
22673 H 4.960746718203694 79.49294496002966 29.91250788833503 H 0.0 **** 0.06
22674 H 6.031418389264971 78.09323139557213 29.653563113911133 H 0.0 **** 0.06
22675 H 5.694707318388808 79.21717681571201 28.314460944253483 H 0.0 **** 0.06
22676 C 148.32197656744887 270.0111633930529 114.42634666644449 C 0.0 **** -0.24
22677 H 148.910580180939 270.1214718580337 115.33766065363125 H 0.0 **** 0.06
22678 H 147.7852441211873 270.93889444949053 114.22613497506575 H 0.0 **** 0.06
22679 H 147.6069104130044 269.1983883689362 114.55302935780765 H 0.0 **** 0.06
22680 H 148.98417832023324 269.78640403757174 113.59074304217836 H 0.0 **** 0.06
22681 C 65.32818955338456 211.8821742903908 34.87510677572993 C 0.0 **** -0.24
22682 H 65.5301548999962 212.95047965478128 34.94342947300851 H 0.0 **** 0.06
22683 H 65.28254075915709 211.58718531724242 33.82686060119045 H 0.0 **** 0.06
22684 H 64.37602000382822 211.66026201462424 35.357882546139024 H 0.0 **** 0.06
22685 H 66.12473282837959 211.32968540791634 35.37433938644136 H 0.0 **** 0.06
22686 C 105.08181157771739 153.67051243866956 192.72784157483113 C 0.0 **** -0.24
22687 H 105.33321586208962 152.9649926689616 193.5193541062377 H 0.0 **** 0.06
22688 H 105.47260563821314 154.65558857631896 192.98206068022046 H 0.0 **** 0.06
22689 H 103.99892816970714 153.72574159377717 192.62168786618935 H 0.0 **** 0.06
22690 H 105.52243754368766 153.3348996349937 191.78882232260418 H 0.0 **** 0.06
22691 C 148.58437673349013 86.43509785798582 120.80918169898607 C 0.0 **** -0.24
22692 H 147.90240075337687 87.06799226422277 120.24061790600726 H 0.0 **** 0.06
22693 H 148.2406537101913 86.36738982232598 121.84140815458497 H 0.0 **** 0.06
22694 H 149.58430303792142 86.86694347847495 120.78655229120602 H 0.0 **** 0.06
22695 H 148.6075176885063 85.43927419186889 120.36736491683399 H 0.0 **** 0.06
22696 C 25.10777721052864 294.42302510911634 169.56796750739466 C 0.0 **** -0.24
22697 H 25.064247608989746 293.54278911796814 168.9256092513058 H 0.0 **** 0.06
22698 H 24.25899651822897 295.07272240147853 169.352059843471 H 0.0 **** 0.06
22699 H 26.035895838506264 294.96341854564383 169.38042791599497 H 0.0 **** 0.06
22700 H 25.072191436332247 294.1131143638257 170.61237754783548 H 0.0 **** 0.06
22701 C 79.4712907904242 139.52504750844543 198.00524164231234 C 0.0 **** -0.24
22702 H 80.46324602367514 139.43174267367397 198.44742980753819 H 0.0 **** 0.06
22703 H 79.2772417436901 140.57102392544536 197.76670934929848 H 0.0 **** 0.06
22704 H 78.7233086406979 139.16853957140538 198.71360323470714 H 0.0 **** 0.06
22705 H 79.42344831387143 138.92914356427923 197.09399857093229 H 0.0 **** 0.06
22706 C 216.0528649763171 111.90688357875007 245.48968369008912 C 0.0 **** -0.24
22707 H 216.13488627122263 112.7136764364171 246.21738152423154 H 0.0 **** 0.06
22708 H 217.00435042913503 111.7877021206726 244.97163199171868 H 0.0 **** 0.06
22709 H 215.27182095559164 112.14652707489574 244.7678439681102 H 0.0 **** 0.06
22710 H 215.79979766779627 110.97880658460488 246.00386691392674 H 0.0 **** 0.06
22711 C 83.95120892531344 160.70029542235596 186.40715962088956 C 0.0 **** -0.24
22712 H 83.02074763974557 160.2765145700509 186.7851687951656 H 0.0 **** 0.06
22713 H 84.64336934472348 159.89524163784068 186.1593013747837 H 0.0 **** 0.06
22714 H 84.3946079323693 161.3401207370777 187.17071396809786 H 0.0 **** 0.06
22715 H 83.74488004659358 161.28980180953147 185.51394242309624 H 0.0 **** 0.06
22716 C 258.23438225178614 116.20052494652651 179.5940399188703 C 0.0 **** -0.24
22717 H 258.8258619890596 116.04072064465055 178.6930556508683 H 0.0 **** 0.06
22718 H 257.1799055102693 116.04196315329057 179.3684710634065 H 0.0 **** 0.06
22719 H 258.381401340542 117.22031079948624 179.9492152979393 H 0.0 **** 0.06
22720 H 258.55114852577117 115.4980006925023 180.36581589445836 H 0.0 **** 0.06
22721 C 17.10105007881225 11.168852771302426 38.73932414698041 C 0.0 **** -0.24
22722 H 16.334149881042606 11.877996895395256 38.42752285049124 H 0.0 **** 0.06
22723 H 17.148274548549352 10.346877367763213 38.025024045232215 H 0.0 **** 0.06
22724 H 16.855472417824615 10.778722703077179 39.7271356133227 H 0.0 **** 0.06
22725 H 18.06638035206413 11.673213759080383 38.77742671454166 H 0.0 **** 0.06
22726 C 48.446127386117695 172.10545400972234 242.06833361462827 C 0.0 **** -0.24
22727 H 47.68568790163707 172.87649746821347 242.18996881969116 H 0.0 **** 0.06
22728 H 48.39100831664405 171.40593251363123 242.9024504617812 H 0.0 **** 0.06
22729 H 49.43270521444174 172.56791420669975 242.0447305792093 H 0.0 **** 0.06
22730 H 48.2732648275242 171.5700195897378 241.13363640309103 H 0.0 **** 0.06
22731 C 216.68520703733594 1.5250435193255925 96.42311538780947 C 0.0 **** -0.24
22732 H 217.52273474079794 1.917056365796583 96.99878944227436 H 0.0 **** 0.06
22733 H 215.8182294363277 1.4119553333401598 97.07430679839774 H 0.0 **** 0.06
22734 H 216.95455138076503 0.5540270670578309 96.00557493289489 H 0.0 **** 0.06
22735 H 216.44512670998307 2.2146949110471184 95.61388999012351 H 0.0 **** 0.06
22736 C 47.067024868001226 181.71244856888364 117.51404773660605 C 0.0 **** -0.24
22737 H 48.0463901291765 182.0564049490108 117.18080151296098 H 0.0 **** 0.06
22738 H 46.393357081653335 182.5645318599108 117.60316635106179 H 0.0 **** 0.06
22739 H 47.16387594190397 181.22290614552617 118.48214609256001 H 0.0 **** 0.06
22740 H 46.66426039598062 181.00511249929644 116.78801549095672 H 0.0 **** 0.06
22741 C 267.43597830188276 249.15971246267873 288.48635757744574 C 0.0 **** -0.24
22742 H 267.15068500377544 249.86194969444526 287.7038814126683 H 0.0 **** 0.06
22743 H 268.4595002922109 248.824210659467 288.31865657533876 H 0.0 **** 0.06
22744 H 266.76423350039556 248.30172976562147 288.46633354942605 H 0.0 **** 0.06
22745 H 267.3692696980934 249.65076074737382 289.4579407703575 H 0.0 **** 0.06
22746 C 135.46610497729966 196.84435294830962 56.108097514633585 C 0.0 **** -0.24
22747 H 135.681910157973 195.7981272442143 56.326604387847965 H 0.0 **** 0.06
22748 H 134.69356332213908 197.2058735698855 56.78727465227655 H 0.0 **** 0.06
22749 H 135.11796461977667 196.9365166875454 55.078861151730365 H 0.0 **** 0.06
22750 H 136.37181634956744 197.43685229426603 56.23910051862393 H 0.0 **** 0.06
22751 C 99.7759662088977 276.7405229435452 56.02481616235289 C 0.0 **** -0.24
22752 H 99.1927818759765 276.61289283111034 55.11280358654207 H 0.0 **** 0.06
22753 H 99.38554452829979 277.5852572518179 56.59145644075889 H 0.0 **** 0.06
22754 H 100.81781062199195 276.9279871606514 55.76489360402067 H 0.0 **** 0.06
22755 H 99.70944867223119 275.8346449892287 56.627596305029584 H 0.0 **** 0.06
22756 C 242.0742581830973 258.52757493571204 259.99052402816335 C 0.0 **** -0.24
22757 H 242.23192297995658 257.612434020595 260.5615102525506 H 0.0 **** 0.06
22758 H 242.2325196334731 258.32530384837867 258.93094577572765 H 0.0 **** 0.06
22759 H 242.77878675564193 259.28914153380066 260.3249850237403 H 0.0 **** 0.06
22760 H 241.0549700396186 258.88138527140705 260.14536031870693 H 0.0 **** 0.06
22761 C 65.1577503320957 114.038564609579 100.84366330721855 C 0.0 **** -0.24
22762 H 65.4735566530193 112.9977220185713 100.7770869170727 H 0.0 **** 0.06
22763 H 65.52159313600589 114.58407721891774 99.97261694813636 H 0.0 **** 0.06
22764 H 65.56715024545201 114.48523128601266 101.74946733612762 H 0.0 **** 0.06
22765 H 64.06907593746027 114.086316226772 100.8756507629032 H 0.0 **** 0.06
22766 C 128.54516100060505 56.82687437120168 224.37061421084843 C 0.0 **** -0.24
22767 H 127.61421616403902 57.31658204831305 224.6547470110352 H 0.0 **** 0.06
22768 H 128.75343241955198 56.01188458788275 225.0639842564804 H 0.0 **** 0.06
22769 H 129.36020930955843 57.54972272825185 224.4030773540228 H 0.0 **** 0.06
22770 H 128.45237544127863 56.42944152407375 223.35930153545706 H 0.0 **** 0.06
22771 C 215.4572771085077 259.9907900339771 244.0631437554463 C 0.0 **** -0.24
22772 H 215.59147101147127 260.6747588182535 243.22603382144524 H 0.0 **** 0.06
22773 H 214.92737462183396 259.09992519380245 243.72383630240262 H 0.0 **** 0.06
22774 H 214.877509985985 260.48210894644484 244.84426740630124 H 0.0 **** 0.06
22775 H 216.4322941509541 259.7057933748798 244.45911600670098 H 0.0 **** 0.06
22776 C 281.45256240298613 161.6511053076694 195.87587727161286 C 0.0 **** -0.24
22777 H 281.0537386450393 160.73008395494674 195.44991291753303 H 0.0 **** 0.06
22778 H 282.5247058225035 161.7033094580471 195.6872332596132 H 0.0 **** 0.06
22779 H 281.2705778038792 161.66288811085667 196.95066521471455 H 0.0 **** 0.06
22780 H 280.9596208052294 162.5072710501667 195.41488252714208 H 0.0 **** 0.06
22781 C 104.0348295258361 264.1992262217801 120.3421090065473 C 0.0 **** -0.24
22782 H 104.29261951820433 263.7274999631297 119.39419339633855 H 0.0 **** 0.06
22783 H 104.72665240070657 265.01892365421327 120.53934385377892 H 0.0 **** 0.06
22784 H 104.10204214737593 263.4650881945435 121.14366634124758 H 0.0 **** 0.06
22785 H 103.01788988318663 264.5871468013666 120.28880108662372 H 0.0 **** 0.06
22786 C 40.645749532959314 208.19833360411002 52.06874549447093 C 0.0 **** -0.24
22787 H 40.26883665686091 207.20864217607328 51.80991753417118 H 0.0 **** 0.06
22788 H 39.97849194515365 208.66105568857023 52.79617723409058 H 0.0 **** 0.06
22789 H 40.69136896254929 208.81544008374544 51.17256426218552 H 0.0 **** 0.06
22790 H 41.6434752800364 208.1057985530864 52.498460458683326 H 0.0 **** 0.06
22791 C 277.6205099008538 307.94515670214656 211.05934207440708 C 0.0 **** -0.24
22792 H 277.39059835328663 307.6805598037639 210.02686228519656 H 0.0 **** 0.06
22793 H 278.66535766279696 308.24774522884354 211.13281104980064 H 0.0 **** 0.06
22794 H 277.4448681620369 307.08165337715366 211.70217513558805 H 0.0 **** 0.06
22795 H 276.98002676032735 308.76809324198416 211.37454223645096 H 0.0 **** 0.06
22796 C 70.8184069372478 48.239394965934935 46.41171945070727 C 0.0 **** -0.24
22797 H 70.69285957821958 49.21149112028729 46.88721000952049 H 0.0 **** 0.06
22798 H 71.28479018753404 47.54893849582095 47.114525168539586 H 0.0 **** 0.06
22799 H 71.45181347210985 48.34516764788205 45.53132030909546 H 0.0 **** 0.06
22800 H 69.84416451112773 47.851982599749476 46.11382231567356 H 0.0 **** 0.06
22801 C 162.6280672856061 167.81402427854607 97.4091664224128 C 0.0 **** -0.24
22802 H 163.11644720792754 167.8111798340405 96.43460738808639 H 0.0 **** 0.06
22803 H 163.38019059126458 167.71464915497864 98.19154834064005 H 0.0 **** 0.06
22804 H 161.93010074349553 166.97846417796904 97.46669360488025 H 0.0 **** 0.06
22805 H 162.08630656246356 168.7502279212975 97.54118689426633 H 0.0 **** 0.06
22806 C 254.21653354140886 44.319161772173004 247.65992466611394 C 0.0 **** -0.24
22807 H 254.06291089561398 44.78584714198473 248.6336321193787 H 0.0 **** 0.06
22808 H 254.48447891822542 45.08265086220854 246.9298280746962 H 0.0 **** 0.06
22809 H 253.29774585207522 43.82333379063755 247.3466162797937 H 0.0 **** 0.06
22810 H 255.0198384574001 43.58606487337249 247.7310688679438 H 0.0 **** 0.06
22811 C 70.85694601494328 241.7951762049604 6.6225419085389206 C 0.0 **** -0.24
22812 H 71.1772951474637 240.83200314319095 6.225995021093141 H 0.0 **** 0.06
22813 H 70.90852477762422 242.54673417794353 5.835340161651914 H 0.0 **** 0.06
22814 H 71.51217976124448 242.08381731453946 7.4452693262889085 H 0.0 **** 0.06
22815 H 69.83222738236819 241.71655568232813 6.984262633370747 H 0.0 **** 0.06
22816 C 38.21110868318374 102.2513273655386 176.8930030717146 C 0.0 **** -0.24
22817 H 38.288693249039284 103.33217234149262 176.77609232718783 H 0.0 **** 0.06
22818 H 37.30737270800199 102.01054991275484 177.45323146927439 H 0.0 **** 0.06
22819 H 39.08210980150761 101.88121278380194 177.4339074982717 H 0.0 **** 0.06
22820 H 38.16698870337609 101.78192039364944 175.91082291158426 H 0.0 **** 0.06
22821 C 62.27373358912698 165.74576934606512 222.007471444167 C 0.0 **** -0.24
22822 H 62.41572729199248 166.6933411798998 221.4890355732216 H 0.0 **** 0.06
22823 H 61.400412838718864 165.23635992536265 221.60104647490198 H 0.0 **** 0.06
22824 H 62.125107590072616 165.93242636531397 223.07058800184586 H 0.0 **** 0.06
22825 H 63.15666076755829 165.12131428395156 221.86936342458634 H 0.0 **** 0.06
22826 C 177.8621829232045 152.55348758530158 127.7853829743222 C 0.0 **** -0.24
22827 H 178.36720269556014 153.51270043985875 127.66581255528848 H 0.0 **** 0.06
22828 H 178.54448501029412 151.83819416875815 128.2441100586904 H 0.0 **** 0.06
22829 H 177.5498173533427 152.18429546143557 126.80829481119883 H 0.0 **** 0.06
22830 H 176.98682432614243 152.68229000478505 128.42214008195947 H 0.0 **** 0.06
22831 C 48.293092113648925 276.3031936459949 290.5033001341087 C 0.0 **** -0.24
22832 H 49.32361776439947 276.61327678915353 290.329977666599 H 0.0 **** 0.06
22833 H 47.64732041831624 276.7461864458776 289.7448473349475 H 0.0 **** 0.06
22834 H 47.976003823411844 276.636013581455 291.4918102546107 H 0.0 **** 0.06
22835 H 48.227155000571486 275.21656217404484 290.44777814153053 H 0.0 **** 0.06
22836 C 49.474709397395145 18.045355157047567 53.836712110027804 C 0.0 **** -0.24
22837 H 49.40443555980903 16.95780420355777 53.818771627375156 H 0.0 **** 0.06
22838 H 48.821334516041446 18.46366767851167 53.06999687208 H 0.0 **** 0.06
22839 H 50.504198381812216 18.34478461825475 53.639997140804496 H 0.0 **** 0.06
22840 H 49.16846775835896 18.41316483975777 54.81588239378618 H 0.0 **** 0.06
22841 C 240.82117462181515 267.27577276564136 189.70605002715797 C 0.0 **** -0.24
22842 H 239.76386298952823 267.5232014236684 189.8040680061893 H 0.0 **** 0.06
22843 H 241.0388312530125 266.37842389583767 190.285636904706 H 0.0 **** 0.06
22844 H 241.42409187598415 268.10371256090036 190.07872257643402 H 0.0 **** 0.06
22845 H 241.05680100524424 267.0973702761489 188.6570447328093 H 0.0 **** 0.06
22846 C 184.1041401687076 298.6923877187586 10.056039780109444 C 0.0 **** -0.24
22847 H 183.03947034618648 298.5573214003058 9.863318187666309 H 0.0 **** 0.06
22848 H 184.63770518218786 297.7753254203376 9.80512053087621 H 0.0 **** 0.06
22849 H 184.25592144511467 298.9256867948 11.109590600994608 H 0.0 **** 0.06
22850 H 184.48196986039238 299.5121145632543 9.444408373477657 H 0.0 **** 0.06
22851 C 25.713950986538663 205.13422738714632 106.83861959722347 C 0.0 **** -0.24
22852 H 25.730743212395055 204.0516863938186 106.9670928297219 H 0.0 **** 0.06
22853 H 26.002097909783743 205.38269316309373 105.81699028064364 H 0.0 **** 0.06
22854 H 26.41377339768721 205.59399541282949 107.53607518936764 H 0.0 **** 0.06
22855 H 24.708589511739035 205.50642479515926 107.03388541933927 H 0.0 **** 0.06
22856 C 134.57314199869205 150.57488807874313 202.75633151492036 C 0.0 **** -0.24
22857 H 133.83616045684647 150.86004319285166 202.00502590368183 H 0.0 **** 0.06
22858 H 135.45885705753855 151.20095653905787 202.65126741676505 H 0.0 **** 0.06
22859 H 134.84772000575967 149.5294231676163 202.61556082178208 H 0.0 **** 0.06
22860 H 134.14732904904895 150.70796012102795 203.75115336635383 H 0.0 **** 0.06
22861 C 129.39254894541992 159.83666200223092 246.31369644290126 C 0.0 **** -0.24
22862 H 129.3891073855866 158.81958257078247 245.92174372168014 H 0.0 **** 0.06
22863 H 129.44066960813717 159.80566538967287 247.4028640004169 H 0.0 **** 0.06
22864 H 128.48144874744628 160.34912389539693 246.00375840020902 H 0.0 **** 0.06
22865 H 130.2596558256731 160.37156369033215 245.92656831018033 H 0.0 **** 0.06
22866 C 26.525930875081116 184.6971845352217 198.54112855772678 C 0.0 **** -0.24
22867 H 27.25288021293204 184.76400646096283 197.73092065475964 H 0.0 **** 0.06
22868 H 27.043397544531814 184.48455249796547 199.4768209294445 H 0.0 **** 0.06
22869 H 25.81670012528204 183.8972744134167 198.32658044171285 H 0.0 **** 0.06
22870 H 25.991336129606395 185.64294994000886 198.62781538314107 H 0.0 **** 0.06
22871 C 131.3636378565291 261.5002528576487 224.02836180116077 C 0.0 **** -0.24
22872 H 132.33931256452928 261.06552616669103 224.24556198138126 H 0.0 **** 0.06
22873 H 130.74560567923905 260.7660604240415 223.51128825764653 H 0.0 **** 0.06
22874 H 131.49121387179315 262.37922805666886 223.3956989253498 H 0.0 **** 0.06
22875 H 130.87975506694292 261.7910479275626 224.9601970968699 H 0.0 **** 0.06
22876 C 69.4961741302113 25.82653081327237 211.09184774274996 C 0.0 **** -0.24
22877 H 68.44976136224068 26.08072003365254 210.92280186285757 H 0.0 **** 0.06
22878 H 69.72976747273074 24.894080482935465 210.5773714221225 H 0.0 **** 0.06
22879 H 69.67310827066711 25.706421508695712 212.16015032623602 H 0.0 **** 0.06
22880 H 70.13024419817023 26.624160388759833 210.70479663629894 H 0.0 **** 0.06
22881 C 150.4372318406697 304.0564745579862 284.68179634154757 C 0.0 **** -0.24
22882 H 150.0540140308742 303.52298192799793 283.8122418167121 H 0.0 **** 0.06
22883 H 151.02526539890215 303.3755269511482 285.2965989425194 H 0.0 **** 0.06
22884 H 149.60270297534163 304.4456396186882 285.265353091027 H 0.0 **** 0.06
22885 H 151.06689006575675 304.8840501328609 284.3521517662689 H 0.0 **** 0.06
22886 C 60.72575098093236 130.9136718445014 40.218794356658634 C 0.0 **** -0.24
22887 H 59.79344688927242 131.01052870515508 40.77442928676729 H 0.0 **** 0.06
22888 H 61.10388039040015 129.89662088209647 40.31825206497257 H 0.0 **** 0.06
22889 H 61.45937231423727 131.61598005407907 40.61542172704358 H 0.0 **** 0.06
22890 H 60.54516073357652 131.133038252555 39.165849487501276 H 0.0 **** 0.06
22891 C 41.00143617307327 166.57046869047235 236.22331715235066 C 0.0 **** -0.24
22892 H 41.39518430021113 165.87162424234697 236.9618144121826 H 0.0 **** 0.06
22893 H 39.91245341067159 166.57567650688742 236.2734048076022 H 0.0 **** 0.06
22894 H 41.3189504772059 166.26276867247003 235.22716871250813 H 0.0 **** 0.06
22895 H 41.379605955543724 167.57095372752804 236.43191641760893 H 0.0 **** 0.06
22896 C 221.50830656998812 132.98201378448852 212.9448660114884 C 0.0 **** -0.24
22897 H 221.96376651492733 133.85464368238746 212.476895233572 H 0.0 **** 0.06
22898 H 222.19420238293552 132.5672656970332 213.68457089491412 H 0.0 **** 0.06
22899 H 221.29712080370868 132.23016923965935 212.18463926822312 H 0.0 **** 0.06
22900 H 220.5801540006749 133.2752342272494 213.43397430576087 H 0.0 **** 0.06
22901 C 287.2326039107703 182.92534846564678 148.67539056041454 C 0.0 **** -0.24
22902 H 286.7929083047578 181.9541178305446 148.4507905319905 H 0.0 **** 0.06
22903 H 288.2279046131218 182.78502343724216 149.09785446578502 H 0.0 **** 0.06
22904 H 286.6039438594295 183.451691731244 149.39326287096037 H 0.0 **** 0.06
22905 H 287.3058148244234 183.5110591785628 147.7588015168052 H 0.0 **** 0.06
22906 C 69.09469796971982 190.23318185420106 36.81927379388108 C 0.0 **** -0.24
22907 H 68.22617938635776 190.38685513744156 37.45966925143969 H 0.0 **** 0.06
22908 H 69.67342605000931 189.3866595895588 37.18846779879658 H 0.0 **** 0.06
22909 H 69.71431871643884 191.12917273303395 36.826677798859095 H 0.0 **** 0.06
22910 H 68.76310065887162 190.03005117488146 35.80091015484376 H 0.0 **** 0.06
22911 C 291.90418003627394 52.58790198970476 243.41837958859585 C 0.0 **** -0.24
22912 H 292.29093131505294 51.57216951385385 243.33232531228657 H 0.0 **** 0.06
22913 H 292.5269976452917 53.15561632943778 244.1097036836669 H 0.0 **** 0.06
22914 H 290.88050614127536 52.55724508577825 243.79113052351167 H 0.0 **** 0.06
22915 H 291.919377057128 53.066373566254185 242.43841818263002 H 0.0 **** 0.06
22916 C 108.57015428093112 130.60851059954987 216.36159470788704 C 0.0 **** -0.24
22917 H 108.81436846845506 130.9531685794085 215.3564530958039 H 0.0 **** 0.06
22918 H 109.47389659105104 130.24795519541118 216.85170692181777 H 0.0 **** 0.06
22919 H 107.84130550479176 129.80094603121788 216.30051873083062 H 0.0 **** 0.06
22920 H 108.14993719265647 131.43447201693337 216.93557352831957 H 0.0 **** 0.06
22921 C 33.66581062928199 199.12090723149254 220.85224502416006 C 0.0 **** -0.24
22922 H 34.5593439738478 199.74512517611407 220.83881110148138 H 0.0 **** 0.06
22923 H 33.17176751413848 199.17414163302584 219.8819142298438 H 0.0 **** 0.06
22924 H 32.98601997756515 199.47737657815463 221.62601218795305 H 0.0 **** 0.06
22925 H 33.94666997374526 198.08991029896913 221.06187730518747 H 0.0 **** 0.06
22926 C 68.54314231235415 189.14732970514478 128.36371270073778 C 0.0 **** -0.24
22927 H 68.95094078518503 188.7879006435959 129.30828429856373 H 0.0 **** 0.06
22928 H 68.65927903423184 188.37672736063672 127.60142952519715 H 0.0 **** 0.06
22929 H 69.07651548579616 190.04688494960806 128.05631593709427 H 0.0 **** 0.06
22930 H 67.48518170943936 189.37676122995202 128.4903969043389 H 0.0 **** 0.06
22931 C 287.55449619743547 101.73213202186435 279.8658255176317 C 0.0 **** -0.24
22932 H 287.063850195765 101.93126416117883 280.81805670684236 H 0.0 **** 0.06
22933 H 287.93555709372146 102.66569587653817 279.4511769011852 H 0.0 **** 0.06
22934 H 286.83670495404255 101.29302016997528 279.17250029433 H 0.0 **** 0.06
22935 H 288.38160715016477 101.03915988238481 280.0199697216611 H 0.0 **** 0.06
22936 C 204.61285722108704 262.84296592952745 63.62613223158266 C 0.0 **** -0.24
22937 H 205.30270867696606 263.2829442064399 62.906689092774116 H 0.0 **** 0.06
22938 H 204.4624804743474 261.7892627512909 63.38836174945564 H 0.0 **** 0.06
22939 H 203.65730053105523 263.3669354735598 63.579498695577115 H 0.0 **** 0.06
22940 H 205.02739609025917 262.93397685533836 64.62977354410569 H 0.0 **** 0.06
22941 C 195.3337556046672 261.4597503560167 91.02362770641642 C 0.0 **** -0.24
22942 H 196.2916896785107 261.0371243870716 91.3272738031392 H 0.0 **** 0.06
22943 H 195.26986535581784 261.4689835195022 89.93586480414814 H 0.0 **** 0.06
22944 H 195.25006585076028 262.47830164705664 91.40165236061233 H 0.0 **** 0.06
22945 H 194.52379741826877 260.85276150707335 91.43042204241715 H 0.0 **** 0.06
22946 C 218.30638350812526 8.294424107657761 205.9257099840678 C 0.0 **** -0.24
22947 H 218.1995290385395 8.940759303065292 206.79679223435647 H 0.0 **** 0.06
22948 H 217.93162968803574 8.810413864949453 205.04220645217578 H 0.0 **** 0.06
22949 H 217.7355458981585 7.378115336063843 206.08101940047482 H 0.0 **** 0.06
22950 H 219.35820307453156 8.04753666755812 205.78450963848513 H 0.0 **** 0.06
22951 C 161.8737638314796 187.65827880266653 21.41122868328995 C 0.0 **** -0.24
22952 H 162.7121061515851 188.1533651458074 21.90202703321475 H 0.0 **** 0.06
22953 H 162.2441053938059 187.05073421160887 20.584983531520436 H 0.0 **** 0.06
22954 H 161.181578189434 188.4085825703301 21.03061124029597 H 0.0 **** 0.06
22955 H 161.35904417720963 187.0201123613519 22.129468629578213 H 0.0 **** 0.06
22956 C 124.3118951320607 76.32241488347879 57.34810449647881 C 0.0 **** -0.24
22957 H 124.9184924900996 75.61968627889127 56.777042763790064 H 0.0 **** 0.06
22958 H 124.46736544675957 76.1532974386889 58.413446985710806 H 0.0 **** 0.06
22959 H 123.25960368269614 76.17307091653669 57.1056102975314 H 0.0 **** 0.06
22960 H 124.60264781578394 77.34138761599235 57.09542131364131 H 0.0 **** 0.06
22961 C 91.49786303034043 100.98181416669047 218.61001514634256 C 0.0 **** -0.24
22962 H 92.14205790263406 100.10623767416098 218.68797744727462 H 0.0 **** 0.06
22963 H 91.71533143344283 101.66796987718996 219.42893650238835 H 0.0 **** 0.06
22964 H 90.4544134577138 100.67082981908607 218.66356023067038 H 0.0 **** 0.06
22965 H 91.67803506548631 101.48197685232293 217.6577600956859 H 0.0 **** 0.06
22966 C 206.83814365407505 170.86566774722496 260.7158128241925 C 0.0 **** -0.24
22967 H 207.8068370967968 170.37108366263806 260.6394194314323 H 0.0 **** 0.06
22968 H 206.9543753708789 171.8143324424961 261.24122774627665 H 0.0 **** 0.06
22969 H 206.14729305260983 170.22704291164723 261.2659129187993 H 0.0 **** 0.06
22970 H 206.4454469384247 171.0492900138371 259.71618964594785 H 0.0 **** 0.06
22971 C 191.8595769524996 267.5615179727652 33.15924718147423 C 0.0 **** -0.24
22972 H 191.26838621674398 266.67998232874686 32.9139294969838 H 0.0 **** 0.06
22973 H 191.59020561189544 267.91470340111005 34.15455692385913 H 0.0 **** 0.06
22974 H 191.66156258891 268.34579071460445 32.4279613737842 H 0.0 **** 0.06
22975 H 192.91911521778445 267.3059462861574 33.138315660354436 H 0.0 **** 0.06
22976 C 248.05260426165924 94.35082842783879 166.06285436113438 C 0.0 **** -0.24
22977 H 248.08380024534597 93.91050115929079 165.06630679251953 H 0.0 **** 0.06
22978 H 248.7031874375599 93.78508243895564 166.73072288335334 H 0.0 **** 0.06
22979 H 247.03048396365057 94.32212141845085 166.44004178496994 H 0.0 **** 0.06
22980 H 248.39321595077755 95.38471615256998 166.01398518535154 H 0.0 **** 0.06
22981 C 157.59292213047178 278.2351087343538 93.70513238085138 C 0.0 **** -0.24
22982 H 156.97435990985366 277.45234545352577 93.26447176117577 H 0.0 **** 0.06
22983 H 158.58868155538931 278.20313982428405 93.26282535306171 H 0.0 **** 0.06
22984 H 157.66746949337397 278.0743951072675 94.78113803860654 H 0.0 **** 0.06
22985 H 157.13970769807895 279.20788266560083 93.51339842850356 H 0.0 **** 0.06
22986 C 170.5508849902352 33.4488538951984 290.10766737267096 C 0.0 **** -0.24
22987 H 170.7556191919041 32.57952626559316 290.7321221161932 H 0.0 **** 0.06
22988 H 169.76142948737674 33.207181201360214 289.3961298351998 H 0.0 **** 0.06
22989 H 171.45596887379037 33.72876502392788 289.566520180234 H 0.0 **** 0.06
22990 H 170.2319130471016 34.28090331987613 290.73627695680716 H 0.0 **** 0.06
22991 C 28.131806954348093 58.46673931050506 176.28135665948201 C 0.0 **** -0.24
22992 H 28.775894299464397 57.63412043114346 176.00076507403656 H 0.0 **** 0.06
22993 H 27.48677647644635 58.72667479059797 175.44160456397185 H 0.0 **** 0.06
22994 H 28.745551131305746 59.3264724702436 176.54907166933333 H 0.0 **** 0.06
22995 H 27.518077112955496 58.17851879049434 177.1359261254849 H 0.0 **** 0.06
22996 C 240.8271389449635 0.27702659856109335 161.45760462581836 C 0.0 **** -0.24
22997 H 240.79741790695923 0.16425969528886242 160.37435044023647 H 0.0 **** 0.06
22998 H 240.6474985395947 1.3195740168792014 161.71925239124954 H 0.0 **** 0.06
22999 H 241.80630789086175 -0.0277461867799218 161.82764256552758 H 0.0 **** 0.06
23000 H 240.05742736903105 -0.3496537123796202 161.90873346594378 H 0.0 **** 0.06
23001 C 247.9827634918061 195.56746689997397 213.54651001695504 C 0.0 **** -0.24
23002 H 248.90350462806504 195.62602556282638 214.12834332662862 H 0.0 **** 0.06
23003 H 247.12565343046893 195.60305068313204 214.2198230884597 H 0.0 **** 0.06
23004 H 247.96747152341572 194.63333468037928 212.9855068979595 H 0.0 **** 0.06
23005 H 247.9363670417574 196.40861252876317 212.85457811850654 H 0.0 **** 0.06
23006 C 21.167115693713896 213.64758771342832 297.3883942295812 C 0.0 **** -0.24
23007 H 21.35659197601464 212.5745576296872 297.36166358510104 H 0.0 **** 0.06
23008 H 21.985247480771932 214.14846255410274 297.90490184611826 H 0.0 **** 0.06
23009 H 20.232245202454763 213.83752236724172 297.91619281253475 H 0.0 **** 0.06
23010 H 21.0922521697386 214.02794441389244 296.3698155229158 H 0.0 **** 0.06
23011 C 148.6990951507966 16.393470821667506 77.08391284356696 C 0.0 **** -0.24
23012 H 148.87006233050732 15.487483725501818 76.50220676964821 H 0.0 **** 0.06
23013 H 149.30972414350407 16.36583228441009 77.98694700624705 H 0.0 **** 0.06
23014 H 147.6463060858789 16.456325121538953 77.35805855095077 H 0.0 **** 0.06
23015 H 148.97226113402968 17.26404011837701 76.48740651820341 H 0.0 **** 0.06
23016 C 72.9048069958776 188.20844137253312 160.10528589081633 C 0.0 **** -0.24
23017 H 73.12879106409326 187.14233372391294 160.14819242761638 H 0.0 **** 0.06
23018 H 72.99189194137264 188.6377570022653 161.10315845292973 H 0.0 **** 0.06
23019 H 71.88979512040754 188.35111237090905 159.73535045603177 H 0.0 **** 0.06
23020 H 73.60873528001079 188.70015105604836 159.4340117985298 H 0.0 **** 0.06
23021 C 16.830865046949327 117.28474677663482 63.750350505968896 C 0.0 **** -0.24
23022 H 16.16578092169749 116.69062639439147 64.37752466854906 H 0.0 **** 0.06
23023 H 16.401613217588135 118.27582257150706 63.601844655138535 H 0.0 **** 0.06
23024 H 16.955871470046702 116.7931418233417 62.785767532704256 H 0.0 **** 0.06
23025 H 17.801965233571423 117.37903838096031 64.23844156314973 H 0.0 **** 0.06
23026 C 26.677281198735017 201.13442492630548 46.29658020968395 C 0.0 **** -0.24
23027 H 25.958581119489367 201.81088747322707 45.834520725937466 H 0.0 **** 0.06
23028 H 27.629944267425316 201.6493576801492 46.42581136870473 H 0.0 **** 0.06
23029 H 26.81816734720408 200.26281095057936 45.65701901428281 H 0.0 **** 0.06
23030 H 26.302432060821417 200.81464360126608 47.268969729810834 H 0.0 **** 0.06
23031 C 57.84810791485111 173.8820327723123 301.7192225958412 C 0.0 **** -0.24
23032 H 57.64861467761011 173.2348010608083 300.8651980589053 H 0.0 **** 0.06
23033 H 58.914354914287884 173.8712290102469 301.9428628425746 H 0.0 **** 0.06
23034 H 57.291696610306445 173.5220633450092 302.5850509996262 H 0.0 **** 0.06
23035 H 57.53516546100008 174.89945048919316 301.48515517221887 H 0.0 **** 0.06
23036 C 177.28233104198443 279.8682050314128 84.44370106727601 C 0.0 **** -0.24
23037 H 176.47413278575834 280.5860163035356 84.31002646946482 H 0.0 **** 0.06
23038 H 177.19623438317694 279.08051633713814 83.69596834022875 H 0.0 **** 0.06
23039 H 177.2191385009897 279.4311067708032 85.44133134610482 H 0.0 **** 0.06
23040 H 178.24068541741923 280.37559853274695 84.33065205847146 H 0.0 **** 0.06
23041 C 256.9380247555101 98.62511758147343 111.61165479700557 C 0.0 **** -0.24
23042 H 257.7458758328224 99.14257004502002 111.09475158324517 H 0.0 **** 0.06
23043 H 256.34769913097455 99.34734673996914 112.17610058914144 H 0.0 **** 0.06
23044 H 257.3588083745201 97.88721672946582 112.2942306723896 H 0.0 **** 0.06
23045 H 256.3013270195687 98.12420844166434 110.88281848210713 H 0.0 **** 0.06
23046 C 225.4364013106608 49.26275804685588 171.4339972724132 C 0.0 **** -0.24
23047 H 224.9970758424552 48.700694114858436 170.61020626930207 H 0.0 **** 0.06
23048 H 226.38527173420755 49.69374066329382 171.11461779029742 H 0.0 **** 0.06
23049 H 225.60651778167465 48.59415666954476 172.27795161658514 H 0.0 **** 0.06
23050 H 224.75634863577028 50.06006423020267 171.73365968029873 H 0.0 **** 0.06
23051 C 76.74514531172025 75.7564755903739 276.4014535046919 C 0.0 **** -0.24
23052 H 76.74927954070034 74.71241246193881 276.08859820058467 H 0.0 **** 0.06
23053 H 76.57946640356451 75.81206066981764 277.4782372140932 H 0.0 **** 0.06
23054 H 75.94665504787648 76.28669013992982 275.8832400581945 H 0.0 **** 0.06
23055 H 77.70365721540847 76.21242729810038 276.15631820641124 H 0.0 **** 0.06
23056 C 73.30034238834457 310.1129467571065 20.470880488255148 C 0.0 **** -0.24
23057 H 74.1921640514199 310.2516573796857 21.081267930907643 H 0.0 **** 0.06
23058 H 72.43859149815142 309.9468702440897 21.118367438717257 H 0.0 **** 0.06
23059 H 73.43698411965613 309.2498142102372 19.818971295019082 H 0.0 **** 0.06
23060 H 73.13286345469623 311.00287979702296 19.864610466814213 H 0.0 **** 0.06
23061 C 100.81405907788977 97.26733235583862 125.46777074170242 C 0.0 **** -0.24
23062 H 101.32828008274063 97.95733317383235 124.7993823998539 H 0.0 **** 0.06
23063 H 101.52386662779884 96.86737085975062 126.1926606636209 H 0.0 **** 0.06
23064 H 100.38682405803092 96.44922711264701 124.88759197588968 H 0.0 **** 0.06
23065 H 100.01794137807795 97.79570784387192 125.9926510169542 H 0.0 **** 0.06
23066 C 116.2474521819639 243.28553712357143 129.05412601462217 C 0.0 **** -0.24
23067 H 116.07599906716749 242.8149093130603 130.02164068544027 H 0.0 **** 0.06
23068 H 116.3488715995446 242.51678872673597 128.28853712310314 H 0.0 **** 0.06
23069 H 117.16058255940271 243.87946584485422 129.09574258129248 H 0.0 **** 0.06
23070 H 115.40504817065369 243.9327386884266 128.811249578093 H 0.0 **** 0.06
23071 C 58.72108348473637 303.36109737856924 212.19276735993446 C 0.0 **** -0.24
23072 H 57.87681565916645 303.04172541541294 212.8041720868132 H 0.0 **** 0.06
23073 H 59.52968312894109 302.6351891936082 212.28258537414268 H 0.0 **** 0.06
23074 H 59.06782788855324 304.3370075539017 212.5327658873227 H 0.0 **** 0.06
23075 H 58.408357766056696 303.4293328425041 211.15013468121384 H 0.0 **** 0.06
23076 C 254.86294669529798 306.31283057908 291.01604093539595 C 0.0 **** -0.24
23077 H 255.44857284245506 306.2164667695468 291.9301899282103 H 0.0 **** 0.06
23078 H 255.31056467862766 307.0750608305928 290.3772400739627 H 0.0 **** 0.06
23079 H 253.84285764284655 306.6009849826558 291.26616831503634 H 0.0 **** 0.06
23080 H 254.85249024662568 305.3579345695849 290.48958996132217 H 0.0 **** 0.06
23081 C 129.46562327294666 197.37479821676777 216.0778776148996 C 0.0 **** -0.24
23082 H 128.91306659302538 196.58162763915357 215.5737487599498 H 0.0 **** 0.06
23083 H 129.1854026245478 197.40012141069764 217.13078096872943 H 0.0 **** 0.06
23084 H 129.2276852519112 198.33326222642455 215.6148661709412 H 0.0 **** 0.06
23085 H 130.53490467450837 197.18498843476033 215.98960600719454 H 0.0 **** 0.06
23086 C 195.30722479604657 26.763841061246467 235.38824419388135 C 0.0 **** -0.24
23087 H 194.888682394826 27.070737540597975 234.42941617904302 H 0.0 **** 0.06
23088 H 196.39209199989108 26.697485614035486 235.30635735530385 H 0.0 **** 0.06
23089 H 194.90304828433779 25.790757881261925 235.66513012131367 H 0.0 **** 0.06
23090 H 195.04492271467376 27.496679866147304 236.15069894662557 H 0.0 **** 0.06
23091 C 163.65209082088967 234.8937499369734 28.96762564025491 C 0.0 **** -0.24
23092 H 163.8874639445462 235.2256752456684 29.978923041085494 H 0.0 **** 0.06
23093 H 162.80674383725 234.20575470050505 28.999787508298112 H 0.0 **** 0.06
23094 H 164.51802441843284 234.38751472985655 28.540385342383786 H 0.0 **** 0.06
23095 H 163.3953195066581 235.75638949905183 28.352899825396605 H 0.0 **** 0.06
23096 C 0.9501960586545266 188.25197064282105 106.81664094744505 C 0.0 **** -0.24
23097 H 0.1580590388521017 187.50414502886946 106.8092155208567 H 0.0 **** 0.06
23098 H 1.804305503604013 187.87135604431882 107.37693456179662 H 0.0 **** 0.06
23099 H 0.583535271143802 189.16432553614516 107.28786039628952 H 0.0 **** 0.06
23100 H 1.2543110143855642 188.46869253583736 105.7920375754174 H 0.0 **** 0.06
23101 C 204.817174528723 20.876452006735548 207.8604630160902 C 0.0 **** -0.24
23102 H 204.92558590342247 20.91154909945294 206.77657348458615 H 0.0 **** 0.06
23103 H 204.40507255652898 21.82186090012965 208.214575064578 H 0.0 **** 0.06
23104 H 205.7923471960923 20.71121666049619 208.31751541447872 H 0.0 **** 0.06
23105 H 204.14577592713096 20.06217201699897 208.13218229041738 H 0.0 **** 0.06
23106 C 54.472487496934946 55.84015079436924 312.51330415926265 C 0.0 **** -0.24
23107 H 54.08651098502452 54.846954489068224 312.27993194726577 H 0.0 **** 0.06
23108 H 55.14077981896219 55.776382425091384 313.3723916519469 H 0.0 **** 0.06
23109 H 53.641905188393594 56.505384158483764 312.74772247462965 H 0.0 **** 0.06
23110 H 55.017986372982676 56.2290161295885 311.65423194383004 H 0.0 **** 0.06
23111 C 231.15638427848117 38.99198851620943 88.89669879007772 C 0.0 **** -0.24
23112 H 231.84898182469115 39.65744374883798 88.38151210395498 H 0.0 **** 0.06
23113 H 230.83306178321018 39.45545851346111 89.8293431383884 H 0.0 **** 0.06
23114 H 231.653510691224 38.04639182782091 89.1132572878947 H 0.0 **** 0.06
23115 H 230.28878392609664 38.809335393125195 88.2630089502523 H 0.0 **** 0.06
23116 C 247.0134657358447 198.53235920235858 128.1891426780341 C 0.0 **** -0.24
23117 H 247.5579504250208 198.6518313026702 127.25228506240711 H 0.0 **** 0.06
23118 H 247.59035744787118 198.96889720330364 129.0033428181176 H 0.0 **** 0.06
23119 H 246.8537287496334 197.47151709144725 128.38441291407074 H 0.0 **** 0.06
23120 H 246.04929113825898 199.03664842225925 128.1153993139325 H 0.0 **** 0.06
23121 C 76.64430163662266 4.217955521687145 177.13247055848603 C 0.0 **** -0.24
23122 H 76.07621318411503 4.767106916110265 176.38147414910412 H 0.0 **** 0.06
23123 H 75.99268699978376 3.9716484178586597 177.97131829755932 H 0.0 **** 0.06
23124 H 77.47272227852255 4.833321715881652 177.48304585134542 H 0.0 **** 0.06
23125 H 77.03364600981641 3.2995418831972074 176.6929472959402 H 0.0 **** 0.06
23126 C 205.76827416401693 312.7291010225183 236.18516734684255 C 0.0 **** -0.24
23127 H 204.94996847955696 312.0092883778033 236.17925872432448 H 0.0 **** 0.06
23128 H 205.63615301356703 313.42202957345904 237.01658564003677 H 0.0 **** 0.06
23129 H 205.77228653880303 313.2835790411353 235.2469027912352 H 0.0 **** 0.06
23130 H 206.71465340436396 312.2006696829187 236.3002238666514 H 0.0 **** 0.06
23131 C 73.15986955445115 289.6554802343244 94.11767648945934 C 0.0 **** -0.24
23132 H 72.99894621417403 288.9909930851615 93.26844986514325 H 0.0 **** 0.06
23133 H 73.87577923506458 289.20140800564997 94.80341849204478 H 0.0 **** 0.06
23134 H 72.21447340679407 289.81867417714636 94.63479853472234 H 0.0 **** 0.06
23135 H 73.55043927772516 290.60966840256685 93.7632719421828 H 0.0 **** 0.06
23136 C 246.2858741273328 180.23080496435222 269.2915204819772 C 0.0 **** -0.24
23137 H 247.02741309239207 179.4539217107971 269.1092686863329 H 0.0 **** 0.06
23138 H 246.3806410177831 180.5898113520567 270.3159881470802 H 0.0 **** 0.06
23139 H 245.28668083088564 179.8220814947781 269.1408412468669 H 0.0 **** 0.06
23140 H 246.44806397743614 181.05800977107646 268.6003685370866 H 0.0 **** 0.06
23141 C 261.49187316391266 67.5180527071891 180.49320385290167 C 0.0 **** -0.24
23142 H 261.21090373116294 68.07161683902581 179.59645790996387 H 0.0 **** 0.06
23143 H 261.23356331462014 66.46676461973439 180.36671382127497 H 0.0 **** 0.06
23144 H 260.9571999183735 67.92457821598077 181.3518701924633 H 0.0 **** 0.06
23145 H 262.56520676606056 67.611420330344 180.65534209840558 H 0.0 **** 0.06
23146 C 220.58687768588527 107.64405882849829 252.72333613155809 C 0.0 **** -0.24
23147 H 220.1564445019336 108.0666209431889 251.81534445531668 H 0.0 **** 0.06
23148 H 221.65007614342966 107.45883227533 252.5685992056048 H 0.0 **** 0.06
23149 H 220.08425978517005 106.70603360123343 252.9605412577637 H 0.0 **** 0.06
23150 H 220.45622848470396 108.34423585314343 253.54764084733077 H 0.0 **** 0.06
23151 C 88.6951203130501 129.51595140800862 256.06788971892445 C 0.0 **** -0.24
23152 H 87.99749108122342 128.83350579673416 255.5815813844798 H 0.0 **** 0.06
23153 H 88.39451539602783 130.54492412884503 255.868424991908 H 0.0 **** 0.06
23154 H 89.69872504730881 129.34742539798404 255.67944813503985 H 0.0 **** 0.06
23155 H 88.6859467839787 129.33635651617698 257.143103126846 H 0.0 **** 0.06
23156 C 307.5031012049147 155.28273098338315 120.24203988551884 C 0.0 **** -0.24
23157 H 308.5240424856861 155.46573405876188 120.5758603787628 H 0.0 **** 0.06
23158 H 307.3892005808575 154.2293650999123 119.98301224166309 H 0.0 **** 0.06
23159 H 307.2910398242366 155.89770733604354 119.36749462885541 H 0.0 **** 0.06
23160 H 306.80836393160405 155.53715112029403 121.04170472738932 H 0.0 **** 0.06
23161 C 304.28416869648925 168.25207444544958 7.34510866915879 C 0.0 **** -0.24
23162 H 303.3060372191998 167.79983993506352 7.179346449282519 H 0.0 **** 0.06
23163 H 304.2333212920865 169.3190407252643 7.124734315520499 H 0.0 **** 0.06
23164 H 305.01789341051506 167.78073792278383 6.691836694678443 H 0.0 **** 0.06
23165 H 304.5780977413003 168.10837666260778 8.385590778911862 H 0.0 **** 0.06
23166 C 71.12417096114231 234.79653143599623 125.94678437288076 C 0.0 **** -0.24
23167 H 70.57930236659504 233.85263871248407 125.92688232251524 H 0.0 **** 0.06
23168 H 72.19421787347866 234.5969086373099 126.0006145873194 H 0.0 **** 0.06
23169 H 70.8174548926257 235.3751999387436 126.81813927622585 H 0.0 **** 0.06
23170 H 70.90491477881059 235.36037524994995 125.03966738301526 H 0.0 **** 0.06
23171 C 22.10461330775263 308.4640185160189 92.2425133335039 C 0.0 **** -0.24
23172 H 22.802700566943486 307.6904117508569 92.56290232039794 H 0.0 **** 0.06
23173 H 21.0877299956054 308.07292268367524 92.27678766356576 H 0.0 **** 0.06
23174 H 22.342515361008054 308.76844752633883 91.22290951627201 H 0.0 **** 0.06
23175 H 22.185331161982845 309.3237450966104 92.90663544447011 H 0.0 **** 0.06
23176 C 148.51175817723922 282.30118511994965 20.323768170870196 C 0.0 **** -0.24
23177 H 148.3876991394823 283.1575255430621 20.9853766482411 H 0.0 **** 0.06
23178 H 148.59331384895148 282.64737255720524 19.293300179225028 H 0.0 **** 0.06
23179 H 147.64885659687383 281.64060543552915 20.41835517431521 H 0.0 **** 0.06
23180 H 149.4162324951344 281.7582117700629 20.597752657450897 H 0.0 **** 0.06
23181 C 205.36382610074423 29.42034765811323 262.30018495748254 C 0.0 **** -0.24
23182 H 205.05656444705653 29.554571327972667 261.2634339609299 H 0.0 **** 0.06
23183 H 206.3188944543224 28.895974050336406 262.331982906247 H 0.0 **** 0.06
23184 H 204.61026505914174 28.8359171548868 262.8286337213002 H 0.0 **** 0.06
23185 H 205.4683343855936 30.394599041783408 262.77727154075717 H 0.0 **** 0.06
23186 C 110.97342991942685 282.16746621858255 100.00342176263649 C 0.0 **** -0.24
23187 H 111.72651926195033 281.45768770895927 99.66439779692496 H 0.0 **** 0.06
23188 H 111.2145959635067 283.16181469684113 99.62608319028269 H 0.0 **** 0.06
23189 H 110.95684907707329 282.18658480346795 101.09315287880864 H 0.0 **** 0.06
23190 H 109.99445042344954 281.8642304475297 99.63035666110449 H 0.0 **** 0.06
23191 C 269.09532827292156 89.79733790036289 208.27247995500522 C 0.0 **** -0.24
23192 H 268.16485876958416 89.3434442746074 208.61476117507488 H 0.0 **** 0.06
23193 H 268.8700249243089 90.6117282938265 207.58361636909854 H 0.0 **** 0.06
23194 H 269.6995227838947 89.04623352701881 207.76400128126392 H 0.0 **** 0.06
23195 H 269.6457197704644 90.18722274698186 209.12929286346582 H 0.0 **** 0.06
23196 C 127.77355153461929 262.24318593036514 295.2724687797149 C 0.0 **** -0.24
23197 H 128.75225313356316 261.8191537899416 295.4947259941136 H 0.0 **** 0.06
23198 H 127.89294152712807 263.1110747556902 294.6234900674222 H 0.0 **** 0.06
23199 H 127.2892850644696 262.54709727897523 296.2008605241311 H 0.0 **** 0.06
23200 H 127.15972641331638 261.49541789685355 294.7707985331928 H 0.0 **** 0.06
23201 C 86.9659993201212 118.72941700838436 269.3579477800732 C 0.0 **** -0.24
23202 H 87.70928198306589 118.44727005851402 268.6124517503012 H 0.0 **** 0.06
23203 H 86.08421523676279 119.13090047049562 268.85788157139496 H 0.0 **** 0.06
23204 H 87.38466534345412 119.48693393144711 270.01997664571087 H 0.0 **** 0.06
23205 H 86.68583471720206 117.85256357308069 269.9414811528858 H 0.0 **** 0.06
23206 C 60.89015497361797 103.27883109696765 6.341296196725551 C 0.0 **** -0.24
23207 H 61.37316436804721 104.25588967305848 6.323723081241013 H 0.0 **** 0.06
23208 H 59.87170193345938 103.38291387734458 6.715525444479198 H 0.0 **** 0.06
23209 H 61.45048591066396 102.60851140734616 6.993160527084413 H 0.0 **** 0.06
23210 H 60.8656385625614 102.86730048333237 5.332175861789565 H 0.0 **** 0.06
23211 C 52.90697015460546 4.986805743841117 17.964683147669206 C 0.0 **** -0.24
23212 H 51.84730694420904 4.77891942113871 18.116760471375684 H 0.0 **** 0.06
23213 H 53.48624891573053 4.088066791102307 18.17785154245375 H 0.0 **** 0.06
23214 H 53.21932756607697 5.787806371814824 18.634072561682686 H 0.0 **** 0.06
23215 H 53.07310252787585 5.290220420936933 16.931283459338445 H 0.0 **** 0.06
23216 C 18.1767962843943 14.182870076752963 139.36843315010822 C 0.0 **** -0.24
23217 H 18.00303855853781 14.876069082860297 138.5460349887146 H 0.0 **** 0.06
23218 H 17.453820322018316 14.371544504177592 140.1623872235241 H 0.0 **** 0.06
23219 H 19.186991981713277 14.324638357987638 139.75472548139197 H 0.0 **** 0.06
23220 H 18.064863666295594 13.15896222417851 139.0113531173088 H 0.0 **** 0.06
23221 C 84.85264386454753 224.13017805695026 158.97482898827002 C 0.0 **** -0.24
23222 H 85.0535180547642 225.079792276129 158.47772764101256 H 0.0 **** 0.06
23223 H 83.7904048528516 224.0609905202918 159.20884547453255 H 0.0 **** 0.06
23224 H 85.43227427847495 224.0741126169736 159.89595308267798 H 0.0 **** 0.06
23225 H 85.13466500392886 223.30879815382195 158.31661817200512 H 0.0 **** 0.06
23226 C 172.5260121893391 31.99527105907677 36.23737857040089 C 0.0 **** -0.24
23227 H 173.01958575554107 32.921052422369286 36.532194360033145 H 0.0 **** 0.06
23228 H 172.5071723860902 31.925071446111787 35.14933149847863 H 0.0 **** 0.06
23229 H 171.50569333317355 31.99066663492664 36.619391104269226 H 0.0 **** 0.06
23230 H 173.07187117399576 31.14630944133475 36.64723279326469 H 0.0 **** 0.06
23231 C 201.28187509055493 107.67555391934624 282.0261689826916 C 0.0 **** -0.24
23232 H 202.27737438634665 107.62961198121059 281.58562178167085 H 0.0 **** 0.06
23233 H 200.84576757715672 108.65678847812737 281.83619442689394 H 0.0 **** 0.06
23234 H 201.3521402848118 107.51079231200961 283.1018226303504 H 0.0 **** 0.06
23235 H 200.65221811390455 106.90502290603735 281.5810370918512 H 0.0 **** 0.06
23236 C 225.65041054537903 243.8297747527613 78.06841792348322 C 0.0 **** -0.24
23237 H 225.93751448500444 242.8176993096195 77.78160617483547 H 0.0 **** 0.06
23238 H 225.27329528654957 244.36118645484845 77.19447454105784 H 0.0 **** 0.06
23239 H 226.51914559345084 244.35357367945238 78.46709755699857 H 0.0 **** 0.06
23240 H 224.8723346724109 243.78398194324797 78.82977414773688 H 0.0 **** 0.06
23241 C 190.09831256491162 161.39570773402352 16.72318822688564 C 0.0 **** -0.24
23242 H 190.0285135193975 160.67572783763012 15.908255475902351 H 0.0 **** 0.06
23243 H 190.72639913118417 160.98683162962067 17.516136495677713 H 0.0 **** 0.06
23244 H 189.10208480922637 161.59803806179644 17.115885368493494 H 0.0 **** 0.06
23245 H 190.5386835446165 162.3219890248762 16.352653848695695 H 0.0 **** 0.06
23246 C 295.1312492760764 213.66081734763662 98.17080235461174 C 0.0 **** -0.24
23247 H 295.4341044146771 214.12263300142544 97.2303809476532 H 0.0 **** 0.06
23248 H 294.520359032672 214.3621934446218 98.7389168060937 H 0.0 **** 0.06
23249 H 296.0178987700127 213.3996217096702 98.74817213374595 H 0.0 **** 0.06
23250 H 294.553731383355 212.7596203105229 97.96370011910892 H 0.0 **** 0.06
23251 C 67.11764835443478 32.49418553596033 298.97994323133395 C 0.0 **** -0.24
23252 H 66.56486255630091 33.078239478326 299.7161661639366 H 0.0 **** 0.06
23253 H 68.0709298336113 32.97987153469248 298.77225866152617 H 0.0 **** 0.06
23254 H 66.53591464375293 32.424582459864894 298.061100671904 H 0.0 **** 0.06
23255 H 67.29813952162093 31.4927722330564 299.3728575895131 H 0.0 **** 0.06
23256 C 12.17079142670832 105.86291509858182 112.57614279889029 C 0.0 **** -0.24
23257 H 12.65973195599986 104.92148799750203 112.82813392068704 H 0.0 **** 0.06
23258 H 11.467869857082803 106.12942487351009 113.36626820837714 H 0.0 **** 0.06
23259 H 11.63401765129197 105.75214983382912 111.63413838351738 H 0.0 **** 0.06
23260 H 12.92124326074395 106.64684069510986 112.47738019969213 H 0.0 **** 0.06
23261 C 222.134281072864 308.8995459079619 135.10398095864696 C 0.0 **** -0.24
23262 H 221.43223605290848 309.6092034917709 135.54325110293084 H 0.0 **** 0.06
23263 H 221.7116984168606 308.49115054152 134.18617680101525 H 0.0 **** 0.06
23264 H 222.32138400774318 308.0908931130584 135.80965261995843 H 0.0 **** 0.06
23265 H 223.07114003129848 309.40874975863113 134.87796971937013 H 0.0 **** 0.06
23266 C 167.86534913187387 287.12242831530097 63.543157418424045 C 0.0 **** -0.24
23267 H 168.8169138740563 287.1133521208931 64.07549896092047 H 0.0 **** 0.06
23268 H 167.21080505349244 286.35360192441374 63.955489064727374 H 0.0 **** 0.06
23269 H 168.03958291933998 286.9244650773042 62.48514631385342 H 0.0 **** 0.06
23270 H 167.39559471900998 288.09944211661895 63.65769201867897 H 0.0 **** 0.06
23271 C 9.539351729137678 14.406874706697181 170.60147154763973 C 0.0 **** -0.24
23272 H 8.755822687083239 15.14793572336589 170.4443691661271 H 0.0 **** 0.06
23273 H 9.943691296544472 14.513500816899011 171.60874744972722 H 0.0 **** 0.06
23274 H 10.335707159005196 14.560177754958772 169.8724697923123 H 0.0 **** 0.06
23275 H 9.123761580837439 13.406937526537718 170.47966099279387 H 0.0 **** 0.06
23276 C 65.13780071611637 88.3401027279979 122.5582705991705 C 0.0 **** -0.24
23277 H 64.938785445274 89.32138508682712 122.12692015424454 H 0.0 **** 0.06
23278 H 64.28714896639036 88.0313309740823 123.16604601466526 H 0.0 **** 0.06
23279 H 66.03114188601805 88.39255026948194 123.18106604079483 H 0.0 **** 0.06
23280 H 65.29475834890076 87.61728293899819 121.75803613273172 H 0.0 **** 0.06
23281 C 243.67020913227765 198.31077698324128 22.495430066865936 C 0.0 **** -0.24
23282 H 243.16592917443563 199.2113371568086 22.845150591904627 H 0.0 **** 0.06
23283 H 243.8342894086873 197.63744050124512 23.3373956242593 H 0.0 **** 0.06
23284 H 244.62888939002895 198.58000530787785 22.052605473494708 H 0.0 **** 0.06
23285 H 243.05131723182947 197.81400901005475 21.747884249745425 H 0.0 **** 0.06
23286 C 291.0804528395491 223.62638717557726 190.9039359964126 C 0.0 **** -0.24
23287 H 290.28072840465245 223.38506412201895 191.60408338199727 H 0.0 **** 0.06
23288 H 291.80089500425765 224.28545480192616 191.38851344294721 H 0.0 **** 0.06
23289 H 290.6604737504119 224.12514105046134 190.03078624732507 H 0.0 **** 0.06
23290 H 291.58004084776167 222.7080495335985 190.5939454296585 H 0.0 **** 0.06
23291 C 117.85423938411017 272.6300421191112 39.07816620091023 C 0.0 **** -0.24
23292 H 117.58273046874135 272.93327876663596 38.06733496303036 H 0.0 **** 0.06
23293 H 116.9985374294836 272.15023725983957 39.55450097536175 H 0.0 **** 0.06
23294 H 118.14687433175291 273.50692319542617 39.654295273302694 H 0.0 **** 0.06
23295 H 118.68733982591061 271.9287920422844 39.035139098189234 H 0.0 **** 0.06
23296 C 126.887816876897 30.96623084309175 88.43484175763163 C 0.0 **** -0.24
23297 H 127.52661038778876 30.31797513971111 87.83486530463753 H 0.0 **** 0.06
23298 H 126.00387577961652 31.237995348995298 87.85830421543375 H 0.0 **** 0.06
23299 H 127.43720274683284 31.868014942361498 88.70500273523155 H 0.0 **** 0.06
23300 H 126.58504688797893 30.440073896650944 89.3394347852392 H 0.0 **** 0.06
23301 C 112.72469921597954 67.0782584272431 108.52347167906524 C 0.0 **** -0.24
23302 H 111.83703133273019 67.61150250901977 108.18240448536838 H 0.0 **** 0.06
23303 H 113.5106595518896 67.79604034748075 108.75850745437455 H 0.0 **** 0.06
23304 H 113.06820068958476 66.40575998007156 107.73773131226397 H 0.0 **** 0.06
23305 H 112.47992237318533 66.5009798841559 109.41450710282618 H 0.0 **** 0.06
23306 C 290.68521164919525 220.76288011289992 64.83314375023667 C 0.0 **** -0.24
23307 H 290.73528214085684 221.8296078611841 64.61364612140756 H 0.0 **** 0.06
23308 H 290.1154188916958 220.60761225097485 65.74964768226181 H 0.0 **** 0.06
23309 H 291.6939675495773 220.37079079399825 64.96002497943152 H 0.0 **** 0.06
23310 H 290.1955608202027 220.24525465960375 64.00800175776601 H 0.0 **** 0.06
23311 C 50.192177411753704 56.92437787426371 66.42185408781381 C 0.0 **** -0.24
23312 H 51.030744470713074 56.53325095395036 65.84670944108561 H 0.0 **** 0.06
23313 H 49.71527888189567 56.109995672581164 66.96788226920418 H 0.0 **** 0.06
23314 H 49.46987847944672 57.381058171839555 65.74603406503005 H 0.0 **** 0.06
23315 H 50.55313008783193 57.673293890153985 67.12773320117705 H 0.0 **** 0.06
23316 C 291.2808600321026 217.45012425389302 49.2428364373973 C 0.0 **** -0.24
23317 H 291.04031710737536 218.26940289905244 49.92057529143193 H 0.0 **** 0.06
23318 H 290.51074831252174 217.37673958241479 48.473618010331876 H 0.0 **** 0.06
23319 H 291.32446397186266 216.51573390476108 49.80325567878987 H 0.0 **** 0.06
23320 H 292.2460504534701 217.63738209168213 48.77382332883431 H 0.0 **** 0.06
23321 C 0.42789853435924385 277.7209796671832 41.38942940103661 C 0.0 **** -0.24
23322 H 1.1175947668490522 276.9019478906797 41.59424494596257 H 0.0 **** 0.06
23323 H 0.15103110555783417 277.70711740705366 40.33532000725074 H 0.0 **** 0.06
23324 H 0.9106493287501394 278.6692927483758 41.626986391132505 H 0.0 **** 0.06
23325 H -0.4649790120972881 277.604216370087 42.00211068935087 H 0.0 **** 0.06
23326 C 227.91076565075252 116.62536897697763 28.749438609019307 C 0.0 **** -0.24
23327 H 228.43162222940225 115.67185062525817 28.832218581994653 H 0.0 **** 0.06
23328 H 228.45181071919825 117.27551694564488 28.0626946990335 H 0.0 **** 0.06
23329 H 227.85783351090214 117.09584839692906 29.730582150010434 H 0.0 **** 0.06
23330 H 226.9019811413122 116.45607861455412 28.37271465543654 H 0.0 **** 0.06
23331 C 232.64825723366812 8.242613917388724 144.01711813582205 C 0.0 **** -0.24
23332 H 232.044584261593 8.260952067691193 143.10948384437017 H 0.0 **** 0.06
23333 H 232.04520654607978 8.575002657990822 144.86171445391014 H 0.0 **** 0.06
23334 H 233.50382193135064 8.906133054613363 143.8968320338796 H 0.0 **** 0.06
23335 H 232.9980682063796 7.2256024944484665 144.19831252112508 H 0.0 **** 0.06
23336 C 26.150416795950804 305.0705729742382 188.21544082908684 C 0.0 **** -0.24
23337 H 26.259269738251703 305.85477595023514 188.96362267366942 H 0.0 **** 0.06
23338 H 26.64800906767445 304.165292210962 188.56199387953865 H 0.0 **** 0.06
23339 H 26.60203038060365 305.398851147472 187.27857906390443 H 0.0 **** 0.06
23340 H 25.09127901889991 304.8659817652579 188.05532536569058 H 0.0 **** 0.06
23341 C 87.80479279133579 191.23535974692624 23.15305910342292 C 0.0 **** -0.24
23342 H 88.28283460937104 192.18957982940117 22.932742508298873 H 0.0 **** 0.06
23343 H 86.9043499579956 191.1327930092263 22.546487489105118 H 0.0 **** 0.06
23344 H 87.53765221303934 191.19868818308277 24.20914691106458 H 0.0 **** 0.06
23345 H 88.49353923733946 190.42327061775188 22.923878123411583 H 0.0 **** 0.06
23346 C 232.82978378850584 131.9573452440216 306.4730959933299 C 0.0 **** -0.24
23347 H 233.64101719344058 132.65502850274297 306.26430714127133 H 0.0 **** 0.06
23348 H 232.80875803061298 131.18431703398826 305.70486122818613 H 0.0 **** 0.06
23349 H 231.88173818079088 132.4938350476746 306.4763455387277 H 0.0 **** 0.06
23350 H 232.99001740822672 131.49629792318694 307.4486732140074 H 0.0 **** 0.06
23351 C 272.71897324143345 251.93242322300063 143.52584048353384 C 0.0 **** -0.24
23352 H 271.9087873353297 252.62676588453513 143.75087919266275 H 0.0 **** 0.06
23353 H 273.6179864990948 252.23833921999716 144.05912456046795 H 0.0 **** 0.06
23354 H 272.91309014489286 251.93761893604656 142.45256466196045 H 0.0 **** 0.06
23355 H 272.43344262250815 250.92766389249272 143.8381805317332 H 0.0 **** 0.06
23356 C 208.61786583222312 307.042377905964 102.11449349116629 C 0.0 **** -0.24
23357 H 208.06819737318426 307.1465143770381 101.17973441824904 H 0.0 **** 0.06
23358 H 209.34729951803698 306.2374064488665 102.01967890667524 H 0.0 **** 0.06
23359 H 207.9215641428793 306.80932429491185 102.92091356027544 H 0.0 **** 0.06
23360 H 209.13376336488642 307.976120331283 102.3384023323346 H 0.0 **** 0.06
23361 C 191.5548857275523 28.813979404604964 105.47857291599391 C 0.0 **** -0.24
23362 H 192.30863731628898 29.128128079292765 106.20128551952439 H 0.0 **** 0.06
23363 H 191.26092028797513 27.784516240111117 105.68548175428691 H 0.0 **** 0.06
23364 H 191.96727781438818 28.87952489407192 104.47175222429306 H 0.0 **** 0.06
23365 H 190.68387492869795 29.463639414766988 105.55792280267934 H 0.0 **** 0.06
23366 C 30.743471741974133 174.92139616868678 61.61354440834319 C 0.0 **** -0.24
23367 H 30.560508266326394 175.8360259000117 62.178848023935274 H 0.0 **** 0.06
23368 H 31.817528991793154 174.75391039533292 61.53247104452112 H 0.0 **** 0.06
23369 H 30.313584245747393 175.0180881578346 60.61676170981775 H 0.0 **** 0.06
23370 H 30.28116873865133 174.07878247416545 62.12791435861982 H 0.0 **** 0.06
23371 C 19.089055375155894 198.80766780264082 175.0488452125495 C 0.0 **** -0.24
23372 H 19.733445113399725 198.8249477491429 175.92780347017322 H 0.0 **** 0.06
23373 H 18.32187313857466 199.57597974381434 175.1463517667538 H 0.0 **** 0.06
23374 H 18.615827583336227 197.82957449038463 174.96486141924515 H 0.0 **** 0.06
23375 H 19.685573723186167 199.0005053822597 174.15764440773899 H 0.0 **** 0.06
23376 C 39.89343548870727 191.27828727977396 140.94335856646782 C 0.0 **** -0.24
23377 H 40.38971395839195 190.61276443678724 140.2368945710365 H 0.0 **** 0.06
23378 H 39.90477906086585 190.8287329236614 141.9358012852255 H 0.0 **** 0.06
23379 H 38.862106211861715 191.43696274407563 140.6280914254878 H 0.0 **** 0.06
23380 H 40.41560433790016 192.23492821147158 140.97008257493596 H 0.0 **** 0.06
23381 C 126.26602859104116 81.21533717812747 109.4012900411141 C 0.0 **** -0.24
23382 H 127.22332784240831 81.26558512882701 108.8833087355718 H 0.0 **** 0.06
23383 H 126.37535753202141 81.62524856528839 110.40627322291212 H 0.0 **** 0.06
23384 H 125.94320492279763 80.17623013749366 109.46629609957833 H 0.0 **** 0.06
23385 H 125.52429350628569 81.79339540861238 108.85126359582338 H 0.0 **** 0.06
23386 C 294.7639302069816 163.602650127083 198.68930813103037 C 0.0 **** -0.24
23387 H 294.55842898731515 163.8615625646196 197.65047226820383 H 0.0 **** 0.06
23388 H 294.38534438721854 162.6016796460483 198.89527225717177 H 0.0 **** 0.06
23389 H 294.27363942633644 164.32033358813152 199.34676744407875 H 0.0 **** 0.06
23390 H 295.84064491089714 163.62675570207318 198.8623824660387 H 0.0 **** 0.06
23391 C 2.3982097030487353 1.0246546208313703 87.36234511197415 C 0.0 **** -0.24
23392 H 3.3039020786377478 1.3158610636178736 86.8325097903155 H 0.0 **** 0.06
23393 H 2.2708987900791584 1.658747907845978 88.24008823356667 H 0.0 **** 0.06
23394 H 2.4786968863063805 -0.016573008245345022 87.67527671756423 H 0.0 **** 0.06
23395 H 1.5377802014957922 1.140141162730572 86.70211311630695 H 0.0 **** 0.06
23396 C 49.47035192594771 194.6889640349229 226.78161281351132 C 0.0 **** -0.24
23397 H 50.06503097362028 193.78696632705083 226.63972091125956 H 0.0 **** 0.06
23398 H 50.126647242588376 195.5595057045726 226.78150894280623 H 0.0 **** 0.06
23399 H 48.9433064724131 194.63093178794253 227.73311777459827 H 0.0 **** 0.06
23400 H 48.747941527165096 194.77855483379375 225.97046544505525 H 0.0 **** 0.06
23401 C 294.38391867627183 70.43962049115402 254.74689951141013 C 0.0 **** -0.24
23402 H 293.5501678995937 69.8157271923314 254.42311540271504 H 0.0 **** 0.06
23403 H 294.3549509692544 70.54857362757286 255.83164853388277 H 0.0 **** 0.06
23404 H 294.30615383441074 71.42114300677153 254.28000495415543 H 0.0 **** 0.06
23405 H 295.32290842280486 69.97025710328316 254.45264177034778 H 0.0 **** 0.06
23406 C 249.75468678409808 141.23027452136913 149.8362859778308 C 0.0 **** -0.24
23407 H 250.53530044458137 141.75537485446867 149.28576685605276 H 0.0 **** 0.06
23408 H 250.17898922056114 140.7929445845996 150.73996751354088 H 0.0 **** 0.06
23409 H 249.33769182404947 140.441760436932 149.21035460072238 H 0.0 **** 0.06
23410 H 248.96652602867644 141.93302724814185 150.1076742261128 H 0.0 **** 0.06
23411 C 36.22201233111602 186.3172058826533 100.22674994378556 C 0.0 **** -0.24
23412 H 36.78960831394173 187.1515203858142 100.63820280560753 H 0.0 **** 0.06
23413 H 36.90886620114878 185.58982280694295 99.79398098404289 H 0.0 **** 0.06
23414 H 35.545415400756156 186.68267791139726 99.4545212612573 H 0.0 **** 0.06
23415 H 35.64447435776103 185.844573766848 101.02121587911941 H 0.0 **** 0.06
23416 C 306.6929745104139 299.1324772332855 165.79085876083798 C 0.0 **** -0.24
23417 H 307.64187267754755 299.64711144377515 165.64167348982204 H 0.0 **** 0.06
23418 H 305.97220328415807 299.81859484958113 166.2353053882254 H 0.0 **** 0.06
23419 H 306.84214496271153 298.28133120902095 166.45508309835412 H 0.0 **** 0.06
23420 H 306.31524472334013 298.7809785174382 164.83026404162598 H 0.0 **** 0.06
23421 C 162.56520346835458 261.9033135889577 182.5931532820316 C 0.0 **** -0.24
23422 H 162.66581917044977 261.9340808730249 183.67825429415865 H 0.0 **** 0.06
23423 H 161.67713178209658 262.4605979630833 182.29472212205354 H 0.0 **** 0.06
23424 H 162.4711637651879 260.86657480436264 182.26759901054498 H 0.0 **** 0.06
23425 H 163.44693485195893 262.3498340086752 182.13409922263617 H 0.0 **** 0.06
23426 C 15.466986267867242 151.09719637854005 96.24991658200372 C 0.0 **** -0.24
23427 H 15.534814641208953 152.00694031440014 96.84797647952033 H 0.0 **** 0.06
23428 H 14.81944344780699 151.27589040313484 95.39124371427434 H 0.0 **** 0.06
23429 H 15.0518309933679 150.29311751308472 96.85748849202346 H 0.0 **** 0.06
23430 H 16.461229121450444 150.81633871462356 95.90411828011591 H 0.0 **** 0.06
23431 C 90.46712250175074 123.99343521914261 38.254919664150435 C 0.0 **** -0.24
23432 H 90.75816425864693 123.27204834033549 37.491432914834405 H 0.0 **** 0.06
23433 H 89.38429134401218 123.96862527989745 38.38426999715006 H 0.0 **** 0.06
23434 H 90.77370895551954 124.99242504112132 37.94629622379722 H 0.0 **** 0.06
23435 H 90.95152644104749 123.73950600738951 39.19741376274777 H 0.0 **** 0.06
23436 C 78.37718972295778 85.22156873123927 245.07600291931686 C 0.0 **** -0.24
23437 H 78.63442091948792 85.40218511432204 246.11899868968533 H 0.0 **** 0.06
23438 H 78.18790689861359 84.15770428825522 244.92828421569249 H 0.0 **** 0.06
23439 H 79.20476420453483 85.53501177560528 244.4383601568073 H 0.0 **** 0.06
23440 H 77.48422407179447 85.78960305598193 244.8177981643748 H 0.0 **** 0.06
23441 C 112.07574516272345 135.89436979697925 313.2512699759302 C 0.0 **** -0.24
23442 H 112.40721187052242 136.1109249521719 314.2669608923197 H 0.0 **** 0.06
23443 H 112.24654940857016 134.84042139536064 313.03109498218595 H 0.0 **** 0.06
23444 H 112.63693559943951 136.50849876478344 312.54838929921243 H 0.0 **** 0.06
23445 H 111.0123395293407 136.11693825502303 313.1618770708878 H 0.0 **** 0.06
23446 C 62.069874342459144 242.16442216070737 169.58971146937824 C 0.0 **** -0.24
23447 H 61.003246372337856 242.3854394956247 169.54081909054253 H 0.0 **** 0.06
23448 H 62.22995288414509 241.27633138625976 170.20060588264607 H 0.0 **** 0.06
23449 H 62.59535817093453 243.01034335371986 170.0319946678922 H 0.0 **** 0.06
23450 H 62.4490173277992 241.98662678394209 168.58293703860926 H 0.0 **** 0.06
23451 C 43.45713762668822 73.34307302845696 306.68014707532075 C 0.0 **** -0.24
23452 H 43.59949712856849 72.41710825272921 306.12294122779633 H 0.0 **** 0.06
23453 H 43.20742980003351 74.14835079802825 305.98956683856767 H 0.0 **** 0.06
23454 H 44.375778685514604 73.59164257989164 307.21178617668227 H 0.0 **** 0.06
23455 H 42.646445032500594 73.2146618761696 307.3974604268658 H 0.0 **** 0.06
23456 C 263.03085256085797 8.959723114735937 186.43475368828933 C 0.0 **** -0.24
23457 H 263.0653512995789 7.958951870668557 186.00385566626517 H 0.0 **** 0.06
23458 H 262.33902699081443 8.968453824180841 187.2769534893007 H 0.0 **** 0.06
23459 H 262.69148306193506 9.668485863718203 185.67881515728573 H 0.0 **** 0.06
23460 H 264.0254145228962 9.24252730211282 186.77689640209974 H 0.0 **** 0.06
23461 C 248.51269497212715 117.25838980843136 162.48040155156133 C 0.0 **** -0.24
23462 H 248.13045662622343 118.19520799748855 162.0724163963199 H 0.0 **** 0.06
23463 H 247.6783450891176 116.59218074121617 162.7011437181729 H 0.0 **** 0.06
23464 H 249.0678763213145 117.46193705246014 163.3954543007768 H 0.0 **** 0.06
23465 H 249.1714178850586 116.78731599908028 161.7520493482608 H 0.0 **** 0.06
23466 C 180.21808191601082 40.14193247786065 238.2220494610072 C 0.0 **** -0.24
23467 H 179.77325881385235 40.27583811465789 237.2358912388746 H 0.0 **** 0.06
23468 H 180.96211590519903 40.91995675858135 238.39292073271872 H 0.0 **** 0.06
23469 H 180.69601402427799 39.16358736285949 238.27464306205692 H 0.0 **** 0.06
23470 H 179.44045961995715 40.20828109945981 238.98280222890688 H 0.0 **** 0.06
23471 C 224.9309148592094 184.4835367252067 229.63212486059186 C 0.0 **** -0.24
23472 H 225.11223295206162 183.5950766999531 229.02718446429813 H 0.0 **** 0.06
23473 H 223.98504321007107 184.3748397957255 230.16319373814906 H 0.0 **** 0.06
23474 H 224.88573077209253 185.36018598227065 228.9859261075611 H 0.0 **** 0.06
23475 H 225.74065250261233 184.6040444228774 230.35219513235916 H 0.0 **** 0.06
23476 C 204.90317240945075 200.45122796876348 123.17324800072072 C 0.0 **** -0.24
23477 H 203.98901596465504 199.85784545210515 123.16352522851292 H 0.0 **** 0.06
23478 H 204.81706137813734 201.26226535634817 122.44961991982348 H 0.0 **** 0.06
23479 H 205.7500420199505 199.8176524720904 122.91129514461971 H 0.0 **** 0.06
23480 H 205.05555507375828 200.86807517098913 124.16888462335504 H 0.0 **** 0.06
23481 C 61.17743279026129 85.63619192281274 284.80556726592977 C 0.0 **** -0.24
23482 H 60.92113992846751 86.65282333485331 284.5057675069186 H 0.0 **** 0.06
23483 H 61.23859096451358 85.5829705417803 285.8932627744488 H 0.0 **** 0.06
23484 H 62.13924443977518 85.36126365032638 284.37380443611136 H 0.0 **** 0.06
23485 H 60.40894883518763 84.94930273925058 284.45122278730923 H 0.0 **** 0.06
23486 C 136.44391451775414 120.67092640573722 202.90555135903975 C 0.0 **** -0.24
23487 H 136.7523641397031 119.634347580557 202.77197547407792 H 0.0 **** 0.06
23488 H 135.9691633475384 121.0291904023824 201.99128520967133 H 0.0 **** 0.06
23489 H 137.31722265547904 121.28495287814025 203.12588687217306 H 0.0 **** 0.06
23490 H 135.73673301041262 120.73592545449114 203.73184778572113 H 0.0 **** 0.06
23491 C 195.63428949872946 102.29987906558321 75.52349412891252 C 0.0 **** -0.24
23492 H 196.4328123041273 101.5838285918775 75.32916348686965 H 0.0 **** 0.06
23493 H 195.83892023924682 103.22625701222427 74.98678889328187 H 0.0 **** 0.06
23494 H 195.58140218725168 102.50281998666509 76.59334657989129 H 0.0 **** 0.06
23495 H 194.6843802509813 101.88551941500762 75.18550322420467 H 0.0 **** 0.06
23496 C 51.27420162521423 90.73184472514043 205.48436042473634 C 0.0 **** -0.24
23497 H 50.3593646526125 91.26081279979522 205.2179839286964 H 0.0 **** 0.06
23498 H 51.578912964618326 91.018164402085 206.4912831600846 H 0.0 **** 0.06
23499 H 52.06259757438545 90.99266372792351 204.7784308076437 H 0.0 **** 0.06
23500 H 51.095484633053616 89.65739669470292 205.4499654526216 H 0.0 **** 0.06
23501 C 217.43784422900688 232.89113034996416 298.6941947136914 C 0.0 **** -0.24
23502 H 216.77431136492595 232.11510551238518 298.3129678279211 H 0.0 **** 0.06
23503 H 217.3374019916276 232.95513818990605 299.77792424904936 H 0.0 **** 0.06
23504 H 217.17207782528834 233.84860312963605 298.2467023197004 H 0.0 **** 0.06
23505 H 218.46854890923385 232.64544042903788 298.43905225632113 H 0.0 **** 0.06
23506 C 205.86407797486135 73.22648665478778 307.01254055884135 C 0.0 **** -0.24
23507 H 205.42324984737172 72.97956509355978 307.9780847847485 H 0.0 **** 0.06
23508 H 206.62019157688206 72.48321988181178 306.75760119413746 H 0.0 **** 0.06
23509 H 206.32666549100622 74.21275067548476 307.0657423236126 H 0.0 **** 0.06
23510 H 205.0866727993946 73.23125768125104 306.24848049529487 H 0.0 **** 0.06
23511 C 289.11786382806395 195.7812173322157 146.75113038285446 C 0.0 **** -0.24
23512 H 290.0710041093504 195.74519661044508 146.22342548200393 H 0.0 **** 0.06
23513 H 289.0314938274895 194.91388778213252 147.40607009537322 H 0.0 **** 0.06
23514 H 288.30187811520767 195.77356786507534 146.02872942047904 H 0.0 **** 0.06
23515 H 289.06769348341106 196.6925858705909 147.346994187757 H 0.0 **** 0.06
23516 C 132.36733645056628 124.06104429902894 4.847613228362476 C 0.0 **** -0.24
23517 H 132.94226262352856 123.15405328771757 5.03736189324583 H 0.0 **** 0.06
23518 H 132.7072328286225 124.8528050285621 5.5153742262287295 H 0.0 **** 0.06
23519 H 131.30959297292708 123.86424711888677 5.024759944599879 H 0.0 **** 0.06
23520 H 132.51039455752834 124.37139710040967 3.812536483891037 H 0.0 **** 0.06
23521 C 36.08971155791312 266.45972013594144 133.36659661384633 C 0.0 **** -0.24
23522 H 35.20500083050098 266.71355772006723 133.94968216097777 H 0.0 **** 0.06
23523 H 36.95559791389411 266.40236180770876 134.02641036939 H 0.0 **** 0.06
23524 H 36.25806329737347 267.2263432691711 132.61084995700682 H 0.0 **** 0.06
23525 H 35.9389624558448 265.4959160042563 132.87956616588096 H 0.0 **** 0.06
23526 C 64.0255215913549 242.5616663025084 273.66428985727634 C 0.0 **** -0.24
23527 H 63.85421951966421 242.21741581899337 272.64392347267767 H 0.0 **** 0.06
23528 H 64.31952950724383 241.71673145499125 274.28743253861717 H 0.0 **** 0.06
23529 H 63.10928601603834 243.00236677889237 274.0575961144034 H 0.0 **** 0.06
23530 H 64.81862737851725 243.30903466322374 273.66695282091257 H 0.0 **** 0.06
23531 C 251.30618314743356 220.07882460963404 166.24358790044852 C 0.0 **** -0.24
23532 H 252.00997879525016 219.7907189153297 167.02437029285903 H 0.0 **** 0.06
23533 H 250.3150833318651 219.69956984353308 166.4910031878117 H 0.0 **** 0.06
23534 H 251.62974260428808 219.65961946122695 165.2911139274475 H 0.0 **** 0.06
23535 H 251.27248816043186 221.16520121784322 166.16971058934138 H 0.0 **** 0.06
23536 C 18.589046879885075 184.413158397105 69.0599072208554 C 0.0 **** -0.24
23537 H 19.63758116213222 184.6879996663244 68.93752464897841 H 0.0 **** 0.06
23538 H 17.984291588857616 184.96401465288943 68.33983863284928 H 0.0 **** 0.06
23539 H 18.26642108434396 184.65874774342478 70.07102878276561 H 0.0 **** 0.06
23540 H 18.47233514358851 183.34278353055515 68.89057215318857 H 0.0 **** 0.06
23541 C 185.9297799404025 109.6181917170943 170.37466894167954 C 0.0 **** -0.24
23542 H 184.92374223779666 109.4788296969515 169.97894085528412 H 0.0 **** 0.06
23543 H 185.87376791298772 109.82856174703437 171.4437070433549 H 0.0 **** 0.06
23544 H 186.40835427800465 110.45449240016961 169.86467078212945 H 0.0 **** 0.06
23545 H 186.5132246667618 108.71171824323474 170.21249790924867 H 0.0 **** 0.06
23546 C 286.6035314843935 89.63275460604768 234.0655377023532 C 0.0 **** -0.24
23547 H 285.7395462238252 89.07673916756934 233.70325653241406 H 0.0 **** 0.06
23548 H 287.303425132506 89.79215644447552 233.24436640972107 H 0.0 **** 0.06
23549 H 287.09457109368964 89.06481758082765 234.85645804757985 H 0.0 **** 0.06
23550 H 286.2772603539676 90.59609829840687 234.457777974173 H 0.0 **** 0.06
23551 C 12.127437146934767 149.99372836329508 297.83414034292264 C 0.0 **** -0.24
23552 H 11.43172089729444 149.71415172679298 297.04302015354693 H 0.0 **** 0.06
23553 H 12.821702115850883 149.1733148973995 298.0137739825003 H 0.0 **** 0.06
23554 H 11.571380289447802 150.20794973173201 298.74708794742327 H 0.0 **** 0.06
23555 H 12.683233983212972 150.88175154610525 297.531268986441 H 0.0 **** 0.06
23556 C 307.3004628746141 68.64784610446287 96.92814302922446 C 0.0 **** -0.24
23557 H 308.24141548106945 68.93969356813366 96.4608448331642 H 0.0 **** 0.06
23558 H 307.2005793818508 67.56215854442124 96.89477886487683 H 0.0 **** 0.06
23559 H 306.4710377529068 69.10735243412753 96.39135047475926 H 0.0 **** 0.06
23560 H 307.2923354351757 68.98210646584639 97.96639074191916 H 0.0 **** 0.06
23561 C 229.43100453296435 7.964259167363451 228.5935456718553 C 0.0 **** -0.24
23562 H 228.9715346279788 8.807026476018208 228.07689683494058 H 0.0 **** 0.06
23563 H 228.66071710596017 7.394573571602493 229.11460224987295 H 0.0 **** 0.06
23564 H 230.15943888876814 8.334838843473833 229.31509292949954 H 0.0 **** 0.06
23565 H 229.9305800693365 7.321861197031623 227.86942104557812 H 0.0 **** 0.06
23566 C 42.11486803678466 99.74634733919873 51.63428909147984 C 0.0 **** -0.24
23567 H 43.07768739667483 100.03779188892983 52.053412345959686 H 0.0 **** 0.06
23568 H 41.71088122196184 100.57094575819949 51.04551200417532 H 0.0 **** 0.06
23569 H 41.424701932349365 99.504180215438 52.44188873133663 H 0.0 **** 0.06
23570 H 42.24618347189926 98.87352299707683 50.99464209918992 H 0.0 **** 0.06
23571 C 304.8343166800247 287.45407443731483 308.38499251584744 C 0.0 **** -0.24
23572 H 303.7974755023524 287.1558509534822 308.2272411946574 H 0.0 **** 0.06
23573 H 305.4955264282404 286.65165123273624 308.0558207892946 H 0.0 **** 0.06
23574 H 304.99909393271577 287.6486046428608 309.4441434966699 H 0.0 **** 0.06
23575 H 305.04386497657026 288.3566845660562 307.81274972844784 H 0.0 **** 0.06
23576 C 128.45147510473123 303.2265054934734 25.061299835560078 C 0.0 **** -0.24
23577 H 128.21964717820794 302.2416464059878 24.65503915189734 H 0.0 **** 0.06
23578 H 129.26871869309213 303.6712841050213 24.491878846943337 H 0.0 **** 0.06
23579 H 128.74691454093198 303.1281185598614 26.10554544731528 H 0.0 **** 0.06
23580 H 127.57056154662502 303.8649288215992 24.991005389581204 H 0.0 **** 0.06
23581 C 197.71108356396127 27.29346096294833 40.717012819062774 C 0.0 **** -0.24
23582 H 197.15148756967278 27.564802998571764 41.61239495789329 H 0.0 **** 0.06
23583 H 197.42138738076432 27.948207890052146 39.89470026532126 H 0.0 **** 0.06
23584 H 197.49409338958196 26.25842115545828 40.452953713650004 H 0.0 **** 0.06
23585 H 198.7782726765177 27.403360772949213 40.90981266326364 H 0.0 **** 0.06
23586 C 17.65629531169556 249.6952619697763 286.86016484202474 C 0.0 **** -0.24
23587 H 18.110462541853735 250.02991576867535 285.9272397034626 H 0.0 **** 0.06
23588 H 17.544832187516874 248.61088364852878 286.8409559677532 H 0.0 **** 0.06
23589 H 16.677256653029076 250.1594446569828 286.974322990117 H 0.0 **** 0.06
23590 H 18.292756876023205 249.98084150636288 287.6971495200295 H 0.0 **** 0.06
23591 C 225.61537167822843 35.7464213326017 55.26227228378269 C 0.0 **** -0.24
23592 H 226.05213391493857 34.75112505724172 55.18024531999367 H 0.0 **** 0.06
23593 H 224.88675939907694 35.75690103489677 56.07359138099579 H 0.0 **** 0.06
23594 H 225.12093022358266 36.00451946766623 54.32599863323372 H 0.0 **** 0.06
23595 H 226.40224229739385 36.471607631029656 55.47077603231685 H 0.0 **** 0.06
23596 C 257.09261482593877 107.13276040890781 239.4430144542196 C 0.0 **** -0.24
23597 H 256.9740739088728 108.12450432727888 239.00462717235385 H 0.0 **** 0.06
23598 H 257.33886399879873 106.41682199284813 238.6587868853701 H 0.0 **** 0.06
23599 H 256.16141740560505 106.83653676588085 239.92653619124323 H 0.0 **** 0.06
23600 H 257.8934344351349 107.15567320181012 240.1813011884867 H 0.0 **** 0.06
23601 C 66.89709219751961 221.75589419024038 252.6937928167922 C 0.0 **** -0.24
23602 H 67.32866079315568 221.0123744581989 252.0238694598163 H 0.0 **** 0.06
23603 H 65.87738018529794 221.4666530612562 252.94957071839136 H 0.0 **** 0.06
23604 H 66.88515778368588 222.72734117335355 252.1983902693729 H 0.0 **** 0.06
23605 H 67.49639729355957 221.81877698140357 253.60237055632388 H 0.0 **** 0.06
23606 C 135.60045620845548 81.34533077304323 40.53575805695709 C 0.0 **** -0.24
23607 H 135.33007246854683 81.3355410154144 41.591707461220835 H 0.0 **** 0.06
23608 H 135.32112361570938 82.30507565881211 40.099307127672205 H 0.0 **** 0.06
23609 H 135.07264801294139 80.54359951409972 40.0184062895907 H 0.0 **** 0.06
23610 H 136.67523098946893 81.197612875387 40.43469897239885 H 0.0 **** 0.06
23611 C 291.20625062233086 270.76999295509313 74.9868235394915 C 0.0 **** -0.24
23612 H 291.32267206505907 270.65258884659636 73.90995508518373 H 0.0 **** 0.06
23613 H 292.017629186322 270.2521506107697 75.49892458923523 H 0.0 **** 0.06
23614 H 290.25134377668803 270.34461954618996 75.29772663557358 H 0.0 **** 0.06
23615 H 291.232821359165 271.8295842811059 75.24149699434312 H 0.0 **** 0.06
23616 C 119.55056377217994 282.0502999619988 52.63869338067974 C 0.0 **** -0.24
23617 H 118.50573154606693 281.7906104549898 52.47253886541429 H 0.0 **** 0.06
23618 H 119.72503594268628 283.0775414380363 52.31973608196637 H 0.0 **** 0.06
23619 H 120.1881539691457 281.3780150313363 52.06484404393899 H 0.0 **** 0.06
23620 H 119.78339105826842 281.9537928885105 53.69951438018293 H 0.0 **** 0.06
23621 C 143.71597653421108 103.01347406945433 192.53774319394455 C 0.0 **** -0.24
23622 H 144.34196917950283 102.58593879102699 193.32206274066812 H 0.0 **** 0.06
23623 H 144.09621008483626 102.70602534198323 191.56340389040923 H 0.0 **** 0.06
23624 H 143.73535933227336 104.10027427146338 192.60993718108415 H 0.0 **** 0.06
23625 H 142.69259185349213 102.65801872158465 192.65752065623093 H 0.0 **** 0.06
23626 C 269.9381651655914 258.12113584437157 266.769712584613 C 0.0 **** -0.24
23627 H 270.1808870918604 257.23741907224445 266.17858646566674 H 0.0 **** 0.06
23628 H 268.85587642462707 258.21910274257516 266.8490908822085 H 0.0 **** 0.06
23629 H 270.34860064613997 259.00668471531174 266.2841446028624 H 0.0 **** 0.06
23630 H 270.36915109922575 258.02089849209057 267.7658586322197 H 0.0 **** 0.06
23631 C 27.538113286801405 118.22160212581204 20.328860061572 C 0.0 **** -0.24
23632 H 27.14742336946614 118.68602992859573 19.423397442327513 H 0.0 **** 0.06
23633 H 27.170731233824398 117.19690862686545 20.3988387600279 H 0.0 **** 0.06
23634 H 27.207722082439375 118.78734319698145 21.199362237001964 H 0.0 **** 0.06
23635 H 28.62737749169773 118.21452834957367 20.2914327605192 H 0.0 **** 0.06
23636 C 23.580123781588156 12.220586811385488 179.43185431212595 C 0.0 **** -0.24
23637 H 22.919380539546808 13.074913629410545 179.57764321525474 H 0.0 **** 0.06
23638 H 24.071829503438067 12.304305600998958 178.462667025102 H 0.0 **** 0.06
23639 H 22.995810781877907 11.300788673393967 179.46488544341963 H 0.0 **** 0.06
23640 H 24.331444430665755 12.203047431171896 180.2210475711974 H 0.0 **** 0.06
23641 C 174.54535352431384 244.0413498167187 159.14113942099152 C 0.0 **** -0.24
23642 H 174.81458769770597 244.52724643226077 160.0789452583818 H 0.0 **** 0.06
23643 H 174.0771763385078 244.76681290225054 158.47670599391938 H 0.0 **** 0.06
23644 H 173.8477302680655 243.22812919013694 159.3410127661935 H 0.0 **** 0.06
23645 H 175.4423584017349 243.6410437533388 158.6689480887897 H 0.0 **** 0.06
23646 C 120.1552279017991 233.51833273608298 19.907112782726244 C 0.0 **** -0.24
23647 H 119.22368026070535 234.0759476155569 20.00255379723785 H 0.0 **** 0.06
23648 H 119.93660628301151 232.45049310822188 19.87199195772604 H 0.0 **** 0.06
23649 H 120.79509084643863 233.7306475642801 20.762637281609784 H 0.0 **** 0.06
23650 H 120.66390209137899 233.81558683145073 18.98956336953154 H 0.0 **** 0.06
23651 C 27.63378068456629 111.77211140788955 223.41142500290266 C 0.0 **** -0.24
23652 H 28.351408546798808 111.01789668742572 223.08929187132628 H 0.0 **** 0.06
23653 H 27.275675163174412 112.3256676523335 222.54232473350405 H 0.0 **** 0.06
23654 H 28.115770821845388 112.45911266203063 224.10649128115472 H 0.0 **** 0.06
23655 H 26.79315808231135 111.28595861401766 223.90491405487342 H 0.0 **** 0.06
23656 C 279.0805289712569 135.88332532568444 287.42580864495227 C 0.0 **** -0.24
23657 H 279.10377191780435 135.68266801973286 288.4971180133275 H 0.0 **** 0.06
23658 H 279.7453650091748 136.71672854051647 287.19893759381125 H 0.0 **** 0.06
23659 H 278.06390902122365 136.13486525455414 287.12569718948254 H 0.0 **** 0.06
23660 H 279.4105011893225 134.99651005329363 286.8844064290189 H 0.0 **** 0.06
23661 C 256.78534775895264 249.09870104620427 138.98559567980172 C 0.0 **** -0.24
23662 H 256.3827516533345 250.0678170096577 139.2772838132199 H 0.0 **** 0.06
23663 H 256.3002008869813 248.76540417944955 138.0676299583664 H 0.0 **** 0.06
23664 H 256.6002583067838 248.37457277694094 139.77877566739807 H 0.0 **** 0.06
23665 H 257.85950823376885 249.18703525995565 138.81820781315957 H 0.0 **** 0.06
23666 C 24.53585606237516 5.924216898422614 245.22613434391295 C 0.0 **** -0.24
23667 H 24.038666973615165 5.108527227491152 244.7029319810341 H 0.0 **** 0.06
23668 H 23.846937461163066 6.7629966040924785 245.33131096320034 H 0.0 **** 0.06
23669 H 25.410053904592644 6.241697027777775 244.65782822081536 H 0.0 **** 0.06
23670 H 24.84879180261848 5.584961885135556 246.21395548743067 H 0.0 **** 0.06
23671 C 286.9902687798281 272.9873213933764 80.93774567911271 C 0.0 **** -0.24
23672 H 287.5325276803087 272.6873302136827 80.04025365500812 H 0.0 **** 0.06
23673 H 286.41752319721627 273.8915501148293 80.73077643346204 H 0.0 **** 0.06
23674 H 287.7002750257428 273.1818130190425 81.74202827336617 H 0.0 **** 0.06
23675 H 286.31262334084084 272.1877509199942 81.23659023035026 H 0.0 **** 0.06
23676 C 1.3275333117104537 18.32169238548876 215.00332373516073 C 0.0 **** -0.24
23677 H 1.0095299828578277 17.360271293485127 215.4057249197918 H 0.0 **** 0.06
23678 H 0.9219623531683965 18.446750797000476 213.99916441370624 H 0.0 **** 0.06
23679 H 2.41632771910389 18.35656895298756 214.96254733837318 H 0.0 **** 0.06
23680 H 0.9613839186216069 19.12283085121517 215.64598315834223 H 0.0 **** 0.06
23681 C 51.7360275429981 157.0282009723246 61.70089490121086 C 0.0 **** -0.24
23682 H 50.96158869030805 157.59085995712252 61.178578249214354 H 0.0 **** 0.06
23683 H 52.70381473761489 157.23331878126385 61.24337771038114 H 0.0 **** 0.06
23684 H 51.51852284932801 155.9624211730668 61.631761138909695 H 0.0 **** 0.06
23685 H 51.75759717378298 157.32779240483092 62.748976041773574 H 0.0 **** 0.06
23686 C 176.55612954857537 305.9721052722706 50.50081206549163 C 0.0 **** -0.24
23687 H 176.1868879335433 306.54606972262405 51.35085194130954 H 0.0 **** 0.06
23688 H 176.3608702791185 306.5217406810873 49.58021547452449 H 0.0 **** 0.06
23689 H 176.0466570818724 305.00896486983964 50.46523507206402 H 0.0 **** 0.06
23690 H 177.62858498469444 305.8121128143371 50.60949094331099 H 0.0 **** 0.06
23691 C 25.448467820814358 252.60083279072083 205.5871244773474 C 0.0 **** -0.24
23692 H 24.756237960520707 252.49420577881608 206.42262364136752 H 0.0 **** 0.06
23693 H 25.37773279146839 251.72500820911634 204.94288057678733 H 0.0 **** 0.06
23694 H 26.465613053680414 252.69144466944562 205.96843329318233 H 0.0 **** 0.06
23695 H 25.194199603521923 253.49389202001169 205.01643258528418 H 0.0 **** 0.06
23696 C 156.1722831772293 200.5199239184729 21.235227150187427 C 0.0 **** -0.24
23697 H 156.8494486292813 200.1574984289665 20.460809903535818 H 0.0 **** 0.06
23698 H 155.4902769245645 201.25331932468947 20.805863672421452 H 0.0 **** 0.06
23699 H 156.75078672634385 200.9842687565536 22.033809559562656 H 0.0 **** 0.06
23700 H 155.60149371774958 199.68385710931267 21.63933979978799 H 0.0 **** 0.06
23701 C 202.43354680975148 44.128142480182305 298.58372411422846 C 0.0 **** -0.24
23702 H 202.2381500690775 43.07461999055681 298.38437059329635 H 0.0 **** 0.06
23703 H 201.65448095976092 44.52499981898279 299.23546870296616 H 0.0 **** 0.06
23704 H 202.43715283894346 44.680705976142235 297.64378638614795 H 0.0 **** 0.06
23705 H 203.40299587226218 44.23231661174515 299.07115371551697 H 0.0 **** 0.06
23706 C 226.20298566068615 278.4285389353567 102.10471586857969 C 0.0 **** -0.24
23707 H 226.0688063186796 278.3599189531403 103.18461519524448 H 0.0 **** 0.06
23708 H 225.2500005111478 278.67662547569927 101.63645554864834 H 0.0 **** 0.06
23709 H 226.55888231186677 277.47298573707263 101.72189606667337 H 0.0 **** 0.06
23710 H 226.93283217627038 279.20630091328354 101.87857493432608 H 0.0 **** 0.06
23711 C 274.8151753443335 201.67724933676521 238.14066855108902 C 0.0 **** -0.24
23712 H 275.151780171971 201.28433778008048 237.18068727328878 H 0.0 **** 0.06
23713 H 273.9347669474825 202.30115521355793 237.98915334346827 H 0.0 **** 0.06
23714 H 275.6113598450663 202.2748842957027 238.58630186855095 H 0.0 **** 0.06
23715 H 274.5665155936216 200.85047888810465 238.80522878061737 H 0.0 **** 0.06
23716 C 311.89852376875126 28.332410886469575 248.31950677987643 C 0.0 **** -0.24
23717 H 312.0748970074532 29.23749088864372 248.9004715110794 H 0.0 **** 0.06
23718 H 312.8277088625314 28.020735950448397 247.84180064791133 H 0.0 **** 0.06
23719 H 311.1462866047974 28.531796971871756 247.5558879018497 H 0.0 **** 0.06
23720 H 311.54509899495184 27.540463799042527 248.97934091591029 H 0.0 **** 0.06
23721 C 46.304100958814445 174.09740515000811 269.3448378823956 C 0.0 **** -0.24
23722 H 45.96684917684678 174.60998357192483 268.4440188405224 H 0.0 **** 0.06
23723 H 46.040885173413585 173.04066598717537 269.2809383454452 H 0.0 **** 0.06
23724 H 45.823007569198694 174.54014176849915 270.21642538958224 H 0.0 **** 0.06
23725 H 47.3859872649698 174.19712481078085 269.4362400857873 H 0.0 **** 0.06
23726 C 117.15247762719346 52.96702245760872 305.6980857239601 C 0.0 **** -0.24
23727 H 116.59476784838165 52.03224016311469 305.6422626652584 H 0.0 **** 0.06
23728 H 118.11404599775267 52.78855120827069 306.17825405590224 H 0.0 **** 0.06
23729 H 116.58502881362952 53.69325143080445 306.2796651857201 H 0.0 **** 0.06
23730 H 117.31396751359608 53.35328424575022 304.6920786692818 H 0.0 **** 0.06
23731 C 272.116824038504 143.04378255562207 269.17092662984805 C 0.0 **** -0.24
23732 H 271.71755044283213 142.8252416885088 268.18037282698043 H 0.0 **** 0.06
23733 H 272.9694333560809 143.71735064578647 269.0787814506481 H 0.0 **** 0.06
23734 H 272.43557914776386 142.1163553030579 269.6472723276822 H 0.0 **** 0.06
23735 H 271.344334866095 143.51699576429544 269.77770425876383 H 0.0 **** 0.06
23736 C 185.53412000528402 35.18745521391463 204.3179017086515 C 0.0 **** -0.24
23737 H 185.1394529827163 36.19829699383513 204.42246359931846 H 0.0 **** 0.06
23738 H 184.70830470983827 34.489162002776794 204.1764554441815 H 0.0 **** 0.06
23739 H 186.08720822596524 34.9188144610587 205.2171413372842 H 0.0 **** 0.06
23740 H 186.19882760481386 35.14487480807628 203.45540239639706 H 0.0 **** 0.06
23741 C 216.81749130577631 284.43235548617037 126.40584031699595 C 0.0 **** -0.24
23742 H 217.1182282708632 283.6585386951135 127.11201536669753 H 0.0 **** 0.06
23743 H 215.73673388836795 284.570152692174 126.45609657228337 H 0.0 **** 0.06
23744 H 217.0986946245608 284.1319443417357 125.39648547957674 H 0.0 **** 0.06
23745 H 217.31537995916196 285.3684197763605 126.65882427585007 H 0.0 **** 0.06
23746 C 219.39911570277258 204.86668972162835 306.82670526767146 C 0.0 **** -0.24
23747 H 219.37274451050172 204.16953944950478 305.98940101780687 H 0.0 **** 0.06
23748 H 220.27488033150826 204.6601885980275 307.44348720613243 H 0.0 **** 0.06
23749 H 218.49657497724664 204.75011914218044 307.4260848516266 H 0.0 **** 0.06
23750 H 219.45456638664888 205.88726762686753 306.4470945277149 H 0.0 **** 0.06
23751 C 121.51444894194245 22.269478208366763 117.09368991310413 C 0.0 **** -0.24
23752 H 121.6784741382871 21.30411802552709 117.5733896171362 H 0.0 **** 0.06
23753 H 121.20429602136105 22.11416221605967 116.06049609924284 H 0.0 **** 0.06
23754 H 122.43945686215162 22.84590574196949 117.11398762178806 H 0.0 **** 0.06
23755 H 120.73600345263787 22.81339898939075 117.62983649697577 H 0.0 **** 0.06
23756 C 166.24372142430616 103.08650124174574 38.61155578259303 C 0.0 **** -0.24
23757 H 167.01192817595694 102.69546807591863 37.94370789254879 H 0.0 **** 0.06
23758 H 165.3830906970827 102.4172038088083 38.605720531371674 H 0.0 **** 0.06
23759 H 165.93749209984475 104.07596472154015 38.272202025634414 H 0.0 **** 0.06
23760 H 166.64380663387732 103.15670321859261 39.623364984175026 H 0.0 **** 0.06
23761 C 278.3175863004222 293.91081823069726 275.7643257970193 C 0.0 **** -0.24
23762 H 279.147111059694 293.2637757410732 275.4814812560676 H 0.0 **** 0.06
23763 H 277.81108631552854 294.2647106990987 274.8663273357638 H 0.0 **** 0.06
23764 H 278.6972149869926 294.76358838809415 276.3280158477879 H 0.0 **** 0.06
23765 H 277.6149328394736 293.3511980945231 276.381478748458 H 0.0 **** 0.06
23766 C 38.21600491640197 33.34335465782624 205.99349537265414 C 0.0 **** -0.24
23767 H 39.038322449121324 32.80412605507857 205.52403852056415 H 0.0 **** 0.06
23768 H 38.586194714519195 34.2840074357496 206.40401970206068 H 0.0 **** 0.06
23769 H 37.794540516191546 32.73712963416207 206.7958334145756 H 0.0 **** 0.06
23770 H 37.44579607822931 33.549971876552064 205.25001839047826 H 0.0 **** 0.06
23771 C 222.88881247748617 74.94458667253394 68.60212998063918 C 0.0 **** -0.24
23772 H 222.66240983799594 75.0566875942582 69.66291345644947 H 0.0 **** 0.06
23773 H 222.14264638226 75.4771979014194 68.01282124539566 H 0.0 **** 0.06
23774 H 222.87198686502498 73.88700066958509 68.33853351678346 H 0.0 **** 0.06
23775 H 223.87676026048254 75.35520216166242 68.39686078628017 H 0.0 **** 0.06
23776 C 61.381169448479795 134.81646445750883 151.15971202133534 C 0.0 **** -0.24
23777 H 62.24259111625895 134.93841259000746 151.816315183793 H 0.0 **** 0.06
23778 H 61.72342553325905 134.58265007327378 150.15143579054848 H 0.0 **** 0.06
23779 H 60.803741717197795 135.74089880748352 151.14328952349553 H 0.0 **** 0.06
23780 H 60.754812805446164 134.00380499924347 151.52921481675077 H 0.0 **** 0.06
23781 C 54.127210468471986 88.29075543958962 266.91424887850985 C 0.0 **** -0.24
23782 H 55.18037636622546 88.22491668323426 266.63866004356595 H 0.0 **** 0.06
23783 H 53.71238166132645 87.2869862933967 267.0049787566992 H 0.0 **** 0.06
23784 H 53.58513837087622 88.84017331281268 266.14422472697277 H 0.0 **** 0.06
23785 H 54.03353637972424 88.81097872923851 267.8670616828682 H 0.0 **** 0.06
23786 C 61.31400719850245 201.47667735075783 54.04981995396179 C 0.0 **** -0.24
23787 H 61.70371325196848 202.2317707829485 53.36746780996316 H 0.0 **** 0.06
23788 H 61.13566868736572 200.55086174980153 53.501682011259135 H 0.0 **** 0.06
23789 H 60.37882678314844 201.82898538969658 54.48353412305826 H 0.0 **** 0.06
23790 H 62.03797771227741 201.29654927890243 54.84379408312199 H 0.0 **** 0.06
23791 C 209.6082586730509 313.3965825416535 250.4115045917968 C 0.0 **** -0.24
23792 H 209.62195243944694 313.75062697979297 249.38011505727783 H 0.0 **** 0.06
23793 H 210.4381801508365 312.7083319142223 250.5700850516841 H 0.0 **** 0.06
23794 H 208.66633801275782 312.8824902363101 250.60534969916068 H 0.0 **** 0.06
23795 H 209.70389033621808 314.24525118219054 251.0873518117611 H 0.0 **** 0.06
23796 C 40.17619987499009 73.15207931032046 114.38957446749959 C 0.0 **** -0.24
23797 H 39.298401020696105 72.56466740116727 114.11767232207913 H 0.0 **** 0.06
23798 H 40.83397688403306 73.24236543804503 113.52448650873723 H 0.0 **** 0.06
23799 H 40.70739437817818 72.65595640797031 115.20119864820185 H 0.0 **** 0.06
23800 H 39.86207575735651 74.14381343665977 114.7132097655257 H 0.0 **** 0.06
23801 C 171.11201271035134 127.90493452252059 124.56182588122698 C 0.0 **** -0.24
23802 H 171.44834955686179 128.4093161163545 125.46670713059405 H 0.0 **** 0.06
23803 H 170.94483086400646 126.84881727776823 124.7757696823682 H 0.0 **** 0.06
23804 H 171.87187005117949 128.00301894857276 123.78634756553834 H 0.0 **** 0.06
23805 H 170.18236222007914 128.35745944035975 124.2173284025227 H 0.0 **** 0.06
23806 C 20.442447258086432 254.8158622985732 228.44586070336362 C 0.0 **** -0.24
23807 H 20.175120821201887 253.76937557131984 228.59394330759244 H 0.0 **** 0.06
23808 H 20.37759557960912 255.34511690451416 229.39757661724343 H 0.0 **** 0.06
23809 H 19.75552123242943 255.26851157110636 227.7312337948616 H 0.0 **** 0.06
23810 H 21.460746887401314 254.88026827109 228.06276791511078 H 0.0 **** 0.06
23811 C 298.7647484701194 70.92191664102822 234.3178563924978 C 0.0 **** -0.24
23812 H 299.33801578711433 70.20071148530343 234.8994997986883 H 0.0 **** 0.06
23813 H 299.2894297733241 71.13614446847546 233.3867563344556 H 0.0 **** 0.06
23814 H 298.64933332025777 71.84185585959804 234.8907896575255 H 0.0 **** 0.06
23815 H 297.7814275887879 70.50845181994157 234.09402333992116 H 0.0 **** 0.06
23816 C 165.59338501272782 154.23473874843046 108.73112809542826 C 0.0 **** -0.24
23817 H 165.63063991351873 155.1993558980604 108.2255342127198 H 0.0 **** 0.06
23818 H 165.42367317711216 153.44634755488607 107.9980901926186 H 0.0 **** 0.06
23819 H 164.78003649156886 154.2376212863408 109.45712205293506 H 0.0 **** 0.06
23820 H 166.53808653559736 154.05684287552992 109.24528608931004 H 0.0 **** 0.06
23821 C 243.71681371137225 306.8751979494323 285.60763197989223 C 0.0 **** -0.24
23822 H 243.99510564858628 306.4119532870998 286.5542292175704 H 0.0 **** 0.06
23823 H 244.43404192442335 307.6577046394838 285.36195879087256 H 0.0 **** 0.06
23824 H 242.72023041092794 307.30984007332114 285.6960644824473 H 0.0 **** 0.06
23825 H 243.71499628734196 306.1213062457198 284.82122538017364 H 0.0 **** 0.06
23826 C 153.8477663180584 3.4277596296535506 17.670892394570615 C 0.0 **** -0.24
23827 H 153.80237741996297 2.8438554353732286 18.590844075494502 H 0.0 **** 0.06
23828 H 153.29748401705427 4.35961158473674 17.804980714775127 H 0.0 **** 0.06
23829 H 153.40343895700232 2.8574203774860365 16.856074821726153 H 0.0 **** 0.06
23830 H 154.88831809541432 3.651491013879223 17.4344804258363 H 0.0 **** 0.06
23831 C 126.25924611719344 79.2694802677239 90.07766410349643 C 0.0 **** -0.24
23832 H 126.91087850157686 78.54180692711526 90.56246829049485 H 0.0 **** 0.06
23833 H 126.84406876124302 80.14253275952382 89.78701453052247 H 0.0 **** 0.06
23834 H 125.47401890195033 79.57097895138668 90.76988018794964 H 0.0 **** 0.06
23835 H 125.81064513760498 78.81996626001796 89.19168122065366 H 0.0 **** 0.06
23836 C 98.03311353736262 100.96769564918301 312.12811380567047 C 0.0 **** -0.24
23837 H 98.39661616022138 100.57834308701831 311.1766618733849 H 0.0 **** 0.06
23838 H 97.92284691157562 100.1458958769013 312.8365231231609 H 0.0 **** 0.06
23839 H 97.06831027338393 101.45052329900867 311.9778225372793 H 0.0 **** 0.06
23840 H 98.74625990275803 101.69223934978228 312.51916499157994 H 0.0 **** 0.06
23841 C 225.1928340875822 35.40726268074377 112.81727620623204 C 0.0 **** -0.24
23842 H 225.2808276941721 36.069831812037535 113.67768809402475 H 0.0 **** 0.06
23843 H 224.32610338404763 35.695909987740094 112.22228463344274 H 0.0 **** 0.06
23844 H 225.07111759989687 34.38019004100428 113.16109191030068 H 0.0 **** 0.06
23845 H 226.09267250203155 35.48178914257042 112.20711640596653 H 0.0 **** 0.06
23846 C 220.43633348041948 137.4011081320231 27.408222095890835 C 0.0 **** -0.24
23847 H 219.42566424742176 137.4303856900399 27.81600375098239 H 0.0 **** 0.06
23848 H 220.51194695587844 136.59032298848246 26.684467719105385 H 0.0 **** 0.06
23849 H 221.1484937376971 137.23606706882282 28.216278753581776 H 0.0 **** 0.06
23850 H 220.65682975540832 138.34956950640017 26.918279482314972 H 0.0 **** 0.06
23851 C 190.19062476226355 143.01967161983288 80.62118826302964 C 0.0 **** -0.24
23852 H 191.17522592819142 143.30961357954996 80.98854307187187 H 0.0 **** 0.06
23853 H 189.50073399391425 143.85539374033635 80.73410243668258 H 0.0 **** 0.06
23854 H 189.82622921427338 142.1668680303021 81.19402966576968 H 0.0 **** 0.06
23855 H 190.2622024353014 142.7461750199971 79.56819510098359 H 0.0 **** 0.06
23856 C 153.10505271149134 146.5172821096292 134.08107756736416 C 0.0 **** -0.24
23857 H 153.93333666407455 146.56001640383633 133.37374043105572 H 0.0 **** 0.06
23858 H 152.51629271010142 147.4307739931676 134.00503426425874 H 0.0 **** 0.06
23859 H 153.49699833791675 146.41924043534453 135.0932982966118 H 0.0 **** 0.06
23860 H 152.4754491588294 145.65742542540121 133.8496446300649 H 0.0 **** 0.06
23861 C 196.02344729520968 280.0111318507266 217.32251590089328 C 0.0 **** -0.24
23862 H 197.11046010420426 279.98686309472566 217.40425043426126 H 0.0 **** 0.06
23863 H 195.5817071804505 279.62705335945145 218.24241194768445 H 0.0 **** 0.06
23864 H 195.70947066305678 279.39247918355727 216.481964355405 H 0.0 **** 0.06
23865 H 195.694550400923 281.0376733318898 217.16125285581387 H 0.0 **** 0.06
23866 C 105.21042382043979 177.0763147456458 79.71870884509573 C 0.0 **** -0.24
23867 H 105.1438462465961 176.38858505030902 78.87645256765313 H 0.0 **** 0.06
23868 H 104.81984205680604 176.59225614546068 80.61449705268319 H 0.0 **** 0.06
23869 H 104.62524608546451 177.97106951494334 79.50446535061207 H 0.0 **** 0.06
23870 H 106.25143872094918 177.35384702386244 79.87947623781545 H 0.0 **** 0.06
23871 C 230.98950530014451 221.3259472308552 271.7352396685709 C 0.0 **** -0.24
23872 H 231.4819726781982 220.4427851372152 272.14022724949217 H 0.0 **** 0.06
23873 H 229.9249008101183 221.12592936466623 271.61485079044724 H 0.0 **** 0.06
23874 H 231.4246527701386 221.57248527576542 270.76754911123226 H 0.0 **** 0.06
23875 H 231.12718998338298 222.16349563708928 272.419633523362 H 0.0 **** 0.06
23876 C 209.9055743824515 147.79671206884652 263.88484108505236 C 0.0 **** -0.24
23877 H 210.89007810891337 148.26115001341267 263.9372257806585 H 0.0 **** 0.06
23878 H 209.54735652214256 147.5898362683493 264.894181823207 H 0.0 **** 0.06
23879 H 209.9732499957007 146.8652348967632 263.324461186338 H 0.0 **** 0.06
23880 H 209.21093775587678 148.47322954655118 263.38437388247644 H 0.0 **** 0.06
23881 C 155.5844532090402 63.95504921987276 224.1787179228336 C 0.0 **** -0.24
23882 H 155.65516792128375 64.16145391369767 225.2461132931299 H 0.0 **** 0.06
23883 H 155.9975938336013 64.79336397845205 223.6186620904383 H 0.0 **** 0.06
23884 H 154.53866203740927 63.815219188017096 223.90491555266894 H 0.0 **** 0.06
23885 H 156.14436075324312 63.050024627527506 223.94611230662426 H 0.0 **** 0.06
23886 C 125.84847717701496 73.3442371926524 266.40871508038526 C 0.0 **** -0.24
23887 H 126.2968446652635 74.32214169858005 266.5840995798573 H 0.0 **** 0.06
23888 H 125.0947280267992 73.1475159651481 267.17233104108976 H 0.0 **** 0.06
23889 H 126.62095200254458 72.57685312950139 266.45404378487143 H 0.0 **** 0.06
23890 H 125.38006577865238 73.33088969384661 265.4246272003088 H 0.0 **** 0.06
23891 C 4.100786630127089 239.79098716037055 115.72076802062898 C 0.0 **** -0.24
23892 H 4.802272605030652 239.53679861072675 114.92662889251434 H 0.0 **** 0.06
23893 H 4.64852861974542 240.19475481950738 116.57311991199703 H 0.0 **** 0.06
23894 H 3.559904065103467 238.89549172471425 116.02766756118606 H 0.0 **** 0.06
23895 H 3.394046535029929 240.53664808922034 115.35625386688389 H 0.0 **** 0.06
23896 C 84.95890801540017 280.9925640371623 77.05015176228119 C 0.0 **** -0.24
23897 H 85.75527304748394 281.6457748946084 77.40516817880035 H 0.0 **** 0.06
23898 H 85.14089240988073 279.9757931956417 77.39943973763508 H 0.0 **** 0.06
23899 H 84.93789352392204 281.00452237571704 75.96062216780805 H 0.0 **** 0.06
23900 H 84.00243615532992 281.3445512436305 77.43570322976595 H 0.0 **** 0.06
23901 C 18.443239719068245 53.93459567250409 77.48479323052288 C 0.0 **** -0.24
23902 H 19.047522861095885 53.98134545338476 76.57824885930825 H 0.0 **** 0.06
23903 H 18.99517121728121 54.380113649668374 78.31195687799317 H 0.0 **** 0.06
23904 H 18.21742875037215 52.89378590663884 77.71643041852815 H 0.0 **** 0.06
23905 H 17.51420862513818 54.48213424352798 77.33077348173958 H 0.0 **** 0.06
23906 C 27.721302480993728 182.6891153399988 55.688608894478136 C 0.0 **** -0.24
23907 H 27.399214658269187 182.06325939521673 56.52089497565902 H 0.0 **** 0.06
23908 H 26.866578476997944 183.23890832359388 55.296133549341505 H 0.0 **** 0.06
23909 H 28.14101951608879 182.05989620454784 54.90356925142635 H 0.0 **** 0.06
23910 H 28.479343807764366 183.3920716431429 56.035479384980164 H 0.0 **** 0.06
23911 C 124.81658245609307 246.7456657635472 270.1500561061182 C 0.0 **** -0.24
23912 H 125.7700051912206 246.29533225296584 270.4298188202995 H 0.0 **** 0.06
23913 H 124.98938263794446 247.75242267481664 269.77088468763094 H 0.0 **** 0.06
23914 H 124.16706520611177 246.79117872948098 271.02290560719433 H 0.0 **** 0.06
23915 H 124.3435648065626 246.14110034148382 269.3759176782071 H 0.0 **** 0.06
23916 C 228.30000270633687 161.91398322765303 264.0536643227375 C 0.0 **** -0.24
23917 H 228.15048055738475 162.38258902425855 265.02664175654184 H 0.0 **** 0.06
23918 H 228.45665448878322 162.6847852028277 263.2991214918459 H 0.0 **** 0.06
23919 H 227.4191458266966 161.32575192194855 263.7949648022729 H 0.0 **** 0.06
23920 H 229.17312460107175 161.2625713492676 264.09468959232396 H 0.0 **** 0.06
23921 C 204.37804427877563 60.956368395729044 307.5340648247206 C 0.0 **** -0.24
23922 H 204.4560427524765 61.0207845222788 306.4480698166713 H 0.0 **** 0.06
23923 H 205.00315107840265 60.138869816324416 307.8945352336593 H 0.0 **** 0.06
23924 H 203.34112046556282 60.77092351401251 307.81296543094845 H 0.0 **** 0.06
23925 H 204.71297232666643 61.893189840472076 307.9787243920126 H 0.0 **** 0.06
23926 C 228.6042160119627 211.8591735759488 253.98066384325355 C 0.0 **** -0.24
23927 H 227.67927969464375 211.51870497700892 254.44684545475667 H 0.0 **** 0.06
23928 H 228.7815691083708 211.2906030003494 253.06730973148728 H 0.0 **** 0.06
23929 H 229.4345079305865 211.70714187956833 254.67056096942423 H 0.0 **** 0.06
23930 H 228.52049892452405 212.9184278886254 253.7392366352926 H 0.0 **** 0.06
23931 C 310.6353920450542 144.56171833618947 132.98614010661083 C 0.0 **** -0.24
23932 H 310.857152721902 143.5049332856347 132.8359571815415 H 0.0 **** 0.06
23933 H 311.5586726956327 145.09799564113575 133.20849083994156 H 0.0 **** 0.06
23934 H 309.94180570986435 144.6714409947591 133.8199322178182 H 0.0 **** 0.06
23935 H 310.1846522086063 144.97027554301442 132.08205772342052 H 0.0 **** 0.06
23936 C 228.5685931540275 88.89678109782164 131.3000354936627 C 0.0 **** -0.24
23937 H 228.92655309672048 89.25856660470825 130.3366792398457 H 0.0 **** 0.06
23938 H 228.91076633314012 89.56598407300694 132.08903437859968 H 0.0 **** 0.06
23939 H 228.9585766252451 87.89418556543166 131.47908421925897 H 0.0 **** 0.06
23940 H 227.47834241758693 88.86699234916694 131.29552787528573 H 0.0 **** 0.06
23941 C 184.6920588060131 183.5133201940239 122.90093812850867 C 0.0 **** -0.24
23942 H 185.5903338288461 182.90108078143987 122.8232513633599 H 0.0 **** 0.06
23943 H 183.8591122801041 182.99927412499858 122.42153842807235 H 0.0 **** 0.06
23944 H 184.862441338709 184.4700352165995 122.40705098677128 H 0.0 **** 0.06
23945 H 184.45833962877697 183.68361197965612 123.95262744145128 H 0.0 **** 0.06
23946 C 152.4121716110962 132.3793919957789 72.1608755903425 C 0.0 **** -0.24
23947 H 152.04948902440265 132.83162205708174 71.23698129455485 H 0.0 **** 0.06
23948 H 151.91696172031862 132.84782440446992 73.01181600862813 H 0.0 **** 0.06
23949 H 153.48865371186076 132.528260379563 72.23899624300711 H 0.0 **** 0.06
23950 H 152.19176994109745 131.3129144674781 72.15386659849486 H 0.0 **** 0.06
23951 C 169.67981943132366 48.025182347840456 222.00299544969891 C 0.0 **** -0.24
23952 H 170.7470627801436 48.047973077135595 221.78345601064314 H 0.0 **** 0.06
23953 H 169.3122392086534 47.00322564645546 221.9091038561162 H 0.0 **** 0.06
23954 H 169.15026635980388 48.66824656918416 221.29898386718565 H 0.0 **** 0.06
23955 H 169.51023711053892 48.38187173480975 223.01860062133608 H 0.0 **** 0.06
23956 C 95.4054098203423 245.5709172146876 70.53945207716805 C 0.0 **** -0.24
23957 H 95.88514282617038 246.13429189898545 69.73827009776593 H 0.0 **** 0.06
23958 H 95.35630496748618 246.1872241436098 71.43766409941446 H 0.0 **** 0.06
23959 H 95.98318612898487 244.67094685117144 70.74654438848623 H 0.0 **** 0.06
23960 H 94.39730167106467 245.2931239928809 70.23283304260676 H 0.0 **** 0.06
23961 C 177.26336545246954 64.93646721707853 221.2945984313561 C 0.0 **** -0.24
23962 H 178.13662666315582 64.40275690707094 220.92118377270504 H 0.0 **** 0.06
23963 H 177.07484394133866 65.80748027946282 220.66743399326776 H 0.0 **** 0.06
23964 H 177.44671578168845 65.25919975197041 222.3199460417702 H 0.0 **** 0.06
23965 H 176.39620070220377 64.27663612527516 221.27087976190748 H 0.0 **** 0.06
23966 C 76.32960651998962 70.74281533977589 199.41240934012546 C 0.0 **** -0.24
23967 H 76.51689067984296 70.06964972665591 198.5761856571329 H 0.0 **** 0.06
23968 H 75.25945888774422 70.9377364162828 199.48851566789568 H 0.0 **** 0.06
23969 H 76.85976856364394 71.68145678961218 199.25060764994373 H 0.0 **** 0.06
23970 H 76.68142347899911 70.28163887385301 200.33510942323284 H 0.0 **** 0.06
23971 C 132.83500426887028 136.38207482160152 13.811240816622501 C 0.0 **** -0.24
23972 H 133.2717980622579 137.37541165718224 13.91788258412491 H 0.0 **** 0.06
23973 H 133.54881838240723 135.72303409262665 13.316716721925403 H 0.0 **** 0.06
23974 H 131.92605536464484 136.4472312855706 13.21400897702857 H 0.0 **** 0.06
23975 H 132.59427877212607 135.9843806514506 14.797373127357403 H 0.0 **** 0.06
23976 C 107.75878972375165 61.66293210502408 281.72313067174974 C 0.0 **** -0.24
23977 H 106.8349997269192 61.16209465444825 281.43434487286567 H 0.0 **** 0.06
23978 H 107.62973691139365 62.128642087092516 282.7004934177194 H 0.0 **** 0.06
23979 H 108.00393574509312 62.42783286953883 280.98585894336554 H 0.0 **** 0.06
23980 H 108.5678079723015 60.93337557986152 281.77137074322576 H 0.0 **** 0.06
23981 C 71.76644672536037 3.2224581798506478 165.9535713068342 C 0.0 **** -0.24
23982 H 72.37060767029101 3.0822712725300647 166.8505175362198 H 0.0 **** 0.06
23983 H 70.7288799687955 3.3998603835967742 166.2378001527848 H 0.0 **** 0.06
23984 H 71.82669968138288 2.3291369808940914 165.33226851046112 H 0.0 **** 0.06
23985 H 72.14227995015438 4.079631762125018 165.39452105070507 H 0.0 **** 0.06
23986 C 84.9648372012866 96.93052272688735 306.9432659620197 C 0.0 **** -0.24
23987 H 84.67989686924906 96.54237125196002 305.9652584003147 H 0.0 **** 0.06
23988 H 84.46436713810164 96.35592643002963 307.72275307674 H 0.0 **** 0.06
23989 H 84.67079709993297 97.97748898375863 307.0184485821941 H 0.0 **** 0.06
23990 H 86.04428769786287 96.84630424180108 307.06660378883026 H 0.0 **** 0.06
23991 C 218.5400070834945 257.49842221874115 58.47412273575446 C 0.0 **** -0.24
23992 H 217.59266348801526 257.0128113118968 58.23755876063649 H 0.0 **** 0.06
23993 H 218.3475851664095 258.4936106112473 58.87573974483044 H 0.0 **** 0.06
23994 H 219.14094684647512 257.5819750129312 57.56855458146262 H 0.0 **** 0.06
23995 H 219.07713112198593 256.9045963796574 59.21336490706008 H 0.0 **** 0.06
23996 C 61.78283623907711 190.7507329819237 23.543125853310926 C 0.0 **** -0.24
23997 H 61.68287718714495 191.67059141370174 24.120469779810577 H 0.0 **** 0.06
23998 H 60.794800462249896 190.33330920046842 23.352639543561935 H 0.0 **** 0.06
23999 H 62.37969996289041 190.03237857652402 24.105172998764488 H 0.0 **** 0.06
24000 H 62.27462812264551 190.96995855733064 22.59584435528751 H 0.0 **** 0.06
24001 C 49.41139274719481 164.33307953445023 126.27956216503017 C 0.0 **** -0.24
24002 H 50.26746945699506 164.83220260957376 126.73329134821415 H 0.0 **** 0.06
24003 H 49.716804048856574 163.35658870229236 125.90506525346902 H 0.0 **** 0.06
24004 H 49.03430453066969 164.9375245288171 125.45389390175802 H 0.0 **** 0.06
24005 H 48.62678393448775 164.20740096497377 127.02599117050173 H 0.0 **** 0.06
24006 C 163.62300421598172 103.1070304642513 213.70636561165114 C 0.0 **** -0.24
24007 H 163.60163517346217 102.98770281776228 214.7903488375405 H 0.0 **** 0.06
24008 H 163.01229872204664 103.964000648905 213.42414008602327 H 0.0 **** 0.06
24009 H 163.2287459339824 102.20688594785139 213.2344645543223 H 0.0 **** 0.06
24010 H 164.65083585216212 103.2683071832283 213.37971089754564 H 0.0 **** 0.06
24011 C 101.4873801639871 6.817743759047431 54.80295317371511 C 0.0 **** -0.24
24012 H 101.12138533298057 7.060356513896892 55.79993771667378 H 0.0 **** 0.06
24013 H 101.64851821632223 7.738859109857202 54.24147263475189 H 0.0 **** 0.06
24014 H 100.75202516701523 6.200758127121688 54.286203611620664 H 0.0 **** 0.06
24015 H 102.42723211495618 6.272214705416772 54.88356774301559 H 0.0 **** 0.06
24016 C 243.02442843799994 152.0057942905027 117.9061500032355 C 0.0 **** -0.24
24017 H 243.8984137676687 152.63291199691292 118.08248597888232 H 0.0 **** 0.06
24018 H 242.76996226105328 152.02857801254953 116.8461385786197 H 0.0 **** 0.06
24019 H 242.18455148632526 152.3793238693986 118.49016772572702 H 0.0 **** 0.06
24020 H 243.24725578205317 150.98098628036536 118.20480510772308 H 0.0 **** 0.06
24021 C 39.94208197296598 277.632156916253 89.74165580638476 C 0.0 **** -0.24
24022 H 40.942245283652824 278.06278087935726 89.79579181069727 H 0.0 **** 0.06
24023 H 39.23133078918656 278.3043988364302 90.22449523615998 H 0.0 **** 0.06
24024 H 39.93463054801987 276.66871736447325 90.25085523078593 H 0.0 **** 0.06
24025 H 39.661420553428314 277.4945892865834 88.69845704529396 H 0.0 **** 0.06
24026 C 267.75592990726875 20.813188937444636 189.15037881588898 C 0.0 **** -0.24
24027 H 268.8378307879708 20.705776434841937 189.21942505229617 H 0.0 **** 0.06
24028 H 267.37882168808494 21.2817888941604 190.05939906956058 H 0.0 **** 0.06
24029 H 267.29977071353267 19.829996507380272 189.03282122373258 H 0.0 **** 0.06
24030 H 267.5069388477799 21.434713795122207 188.29067092927573 H 0.0 **** 0.06
24031 C 264.81296542789704 176.40520994960104 136.92333647609104 C 0.0 **** -0.24
24032 H 265.81082354717626 176.4071729318291 137.36182327172853 H 0.0 **** 0.06
24033 H 264.890805616596 176.28827279088466 135.84267975289026 H 0.0 **** 0.06
24034 H 264.3149631022562 177.3484727174577 137.15231550076103 H 0.0 **** 0.06
24035 H 264.23498376733335 175.57968307787462 137.33882767268472 H 0.0 **** 0.06
24036 C 110.7027072241001 163.3845748634277 281.9454884119938 C 0.0 **** -0.24
24037 H 110.04601750920193 164.13615259764737 282.3851699827844 H 0.0 **** 0.06
24038 H 110.52406386744653 162.42178416966067 282.42491722202965 H 0.0 **** 0.06
24039 H 111.74144866999154 163.6784579024477 282.09599528047073 H 0.0 **** 0.06
24040 H 110.49865882149706 163.3046719125689 280.8783070251857 H 0.0 **** 0.06
24041 C 151.98591541768388 242.36858664222342 196.1272718149712 C 0.0 **** -0.24
24042 H 151.6492472945215 241.3452002927321 195.96205285773095 H 0.0 **** 0.06
24043 H 151.14206412318646 242.9812868812225 196.44571924142832 H 0.0 **** 0.06
24044 H 152.39665419310256 242.76875927499304 195.1999564019403 H 0.0 **** 0.06
24045 H 152.7544156478662 242.3779849589854 196.89959325941993 H 0.0 **** 0.06
24046 C 264.94068742410246 146.75494688061931 217.18148520032312 C 0.0 **** -0.24
24047 H 263.90813269242216 146.62952340004742 216.85729695011113 H 0.0 **** 0.06
24048 H 265.2319217692992 147.80014295686155 217.06961887018082 H 0.0 **** 0.06
24049 H 265.5923555068268 146.12957792147282 216.5720947504583 H 0.0 **** 0.06
24050 H 265.030625609997 146.46225869353816 218.22833576500614 H 0.0 **** 0.06
24051 C 163.67614650019925 123.40471650971114 9.77549469631306 C 0.0 **** -0.24
24052 H 163.08016134130258 122.59707754815344 9.351389350111702 H 0.0 **** 0.06
24053 H 163.09635459822158 124.32808799429 9.762932628751187 H 0.0 **** 0.06
24054 H 164.5826604330735 123.53609958686647 9.185204662819615 H 0.0 **** 0.06
24055 H 163.94410021259023 123.15756897674336 10.80298545404682 H 0.0 **** 0.06
24056 C 230.13349253314837 148.36596032704196 12.3972725673392 C 0.0 **** -0.24
24057 H 229.51947067301393 148.3800625908949 11.497089458804624 H 0.0 **** 0.06
24058 H 230.41919291254533 147.3382284551282 12.625460759022417 H 0.0 **** 0.06
24059 H 229.56459601576387 148.77930309409294 13.230552749959656 H 0.0 **** 0.06
24060 H 231.02884526344437 148.96502543563844 12.236155135899025 H 0.0 **** 0.06
24061 C 89.74099579309916 258.2714007775393 20.475669202816675 C 0.0 **** -0.24
24062 H 90.3735344973955 258.7416447467425 19.72201361037412 H 0.0 **** 0.06
24063 H 89.71459724128434 258.8966376899864 21.367946215996227 H 0.0 **** 0.06
24064 H 90.1452079023214 257.2913197367707 20.72859028415006 H 0.0 **** 0.06
24065 H 88.73096551795774 258.15794421347465 20.080945496114737 H 0.0 **** 0.06
24066 C 288.5522620300941 0.2020409224371349 41.465713158466144 C 0.0 **** -0.24
24067 H 289.5449650699371 -0.2414693536677106 41.38846900186343 H 0.0 **** 0.06
24068 H 288.436961894041 0.6677256864426084 42.44431160922613 H 0.0 **** 0.06
24069 H 287.7972881863741 -0.5741706800646114 41.3405357098664 H 0.0 **** 0.06
24070 H 288.4302684508624 0.95565319872901 40.687163572748375 H 0.0 **** 0.06
24071 C 1.290799041946741 13.622948724813227 61.10854110176385 C 0.0 **** -0.24
24072 H 1.0910226402656917 14.41746949212893 60.38977724054516 H 0.0 **** 0.06
24073 H 0.5650455347958996 12.820734096614615 60.97306826525613 H 0.0 **** 0.06
24074 H 1.209679153876266 14.019670072516647 62.12014729116419 H 0.0 **** 0.06
24075 H 2.2962706007629663 13.234706054712547 60.94944076051746 H 0.0 **** 0.06
24076 C 183.59323330229995 285.391924101681 150.34439216503785 C 0.0 **** -0.24
24077 H 182.77744747904046 284.80338302596294 150.76325161548164 H 0.0 **** 0.06
24078 H 183.605685829133 285.2753045396239 149.25980737297948 H 0.0 **** 0.06
24079 H 184.54085773390483 285.04603831804695 150.75806028583548 H 0.0 **** 0.06
24080 H 183.44921737942735 286.44278323864586 150.595074907143 H 0.0 **** 0.06
24081 C 218.78992431816948 283.75777266776214 246.91973092468945 C 0.0 **** -0.24
24082 H 219.7694601269407 283.28002119516833 246.87728700667594 H 0.0 **** 0.06
24083 H 218.39214907319138 283.86089684044777 245.909432149074 H 0.0 **** 0.06
24084 H 218.88694127873055 284.7432858621444 247.37508441651855 H 0.0 **** 0.06
24085 H 218.11335181178873 283.1469995977204 247.51676630605567 H 0.0 **** 0.06
24086 C 213.88682611979024 312.97971389947054 85.70506940830825 C 0.0 **** -0.24
24087 H 214.71631090119624 312.39443253645015 86.104063244202 H 0.0 **** 0.06
24088 H 214.25776668051066 313.6562681901967 84.93447175275716 H 0.0 **** 0.06
24089 H 213.4312751214685 313.55822574468743 86.5076232536519 H 0.0 **** 0.06
24090 H 213.14383231743352 312.3090688446426 85.27326879375488 H 0.0 **** 0.06
24091 C 98.71259387308825 132.86554322284417 131.83468483482153 C 0.0 **** -0.24
24092 H 98.58450957575755 132.45430474701905 132.83532446668985 H 0.0 **** 0.06
24093 H 98.40362547185248 133.91096926421497 131.82918298276476 H 0.0 **** 0.06
24094 H 98.10010909829379 132.30226967269138 131.1299014192026 H 0.0 **** 0.06
24095 H 99.76037224448402 132.79358135363682 131.54343181319985 H 0.0 **** 0.06
24096 C 191.25618289462608 231.90310771119965 42.99441093685837 C 0.0 **** -0.24
24097 H 192.27243311953663 231.87122282796045 42.59900077808331 H 0.0 **** 0.06
24098 H 190.63382415079246 232.5214994895072 42.346496931090115 H 0.0 **** 0.06
24099 H 191.27118523388532 232.32714723321067 43.99783345906772 H 0.0 **** 0.06
24100 H 190.8500733047685 230.89220094650523 43.0318390648344 H 0.0 **** 0.06
24101 C 150.09287350418253 215.4653225167511 265.9074363563351 C 0.0 **** -0.24
24102 H 150.9808896304117 216.0663446142899 265.7124026500712 H 0.0 **** 0.06
24103 H 149.91808586373583 215.41421166542926 266.9822648603265 H 0.0 **** 0.06
24104 H 150.24083778178306 214.45960353091175 265.5146689418367 H 0.0 **** 0.06
24105 H 149.23038433603966 215.92235692817502 265.42131154110984 H 0.0 **** 0.06
24106 C 200.62336081183525 1.8751999475788068 99.55222587687996 C 0.0 **** -0.24
24107 H 200.47628863343743 2.358162435399919 98.58652749916001 H 0.0 **** 0.06
24108 H 201.50873678715357 2.289729108080266 100.03514027001492 H 0.0 **** 0.06
24109 H 200.75684412448504 0.8032691589783241 99.40644199692983 H 0.0 **** 0.06
24110 H 199.7501627577687 2.04998793307351 100.182493025134 H 0.0 **** 0.06
24111 C 185.60619727897756 285.5504623038145 130.77754116001913 C 0.0 **** -0.24
24112 H 184.6597188100967 285.8684063275912 131.21569348417734 H 0.0 **** 0.06
24113 H 185.74515318190873 284.48335173526715 130.94816541729506 H 0.0 **** 0.06
24114 H 186.4238373206336 286.1022033377422 131.24077537849467 H 0.0 **** 0.06
24115 H 185.59431481449252 285.74924716353337 129.70572273412017 H 0.0 **** 0.06
24116 C 52.246996180001275 154.95319498966592 142.72988892813987 C 0.0 **** -0.24
24117 H 52.84784054974955 154.05646089828969 142.58273813208757 H 0.0 **** 0.06
24118 H 51.30696495672862 154.6850235716003 143.2135000796181 H 0.0 **** 0.06
24119 H 52.04069881467265 155.41478888471806 141.76465588920692 H 0.0 **** 0.06
24120 H 52.79239888366746 155.65643803408335 143.36007181107917 H 0.0 **** 0.06
24121 C 223.82168916696776 153.29710748497496 275.84118299113027 C 0.0 **** -0.24
24122 H 222.81041168194187 153.17450450985785 276.2290266566273 H 0.0 **** 0.06
24123 H 224.4663510619967 153.69143677631695 276.62670625695944 H 0.0 **** 0.06
24124 H 223.80756400119424 153.9897755727315 275.0001867092963 H 0.0 **** 0.06
24125 H 224.20190299316337 152.3306130068081 275.50937096150335 H 0.0 **** 0.06
24126 C 60.122875549068596 55.50046023121698 116.22825597066819 C 0.0 **** -0.24
24127 H 60.31282276410096 54.484105472868606 116.57385893999614 H 0.0 **** 0.06
24128 H 60.13814810958431 56.18223126078476 117.0780908712841 H 0.0 **** 0.06
24129 H 59.1473842630792 55.543032247566174 115.74533287367925 H 0.0 **** 0.06
24130 H 60.894949774784635 55.7914885811505 115.51485619017038 H 0.0 **** 0.06
24131 C 91.66808665268141 264.35236241662045 88.17864805288235 C 0.0 **** -0.24
24132 H 90.94807930976509 265.1577522470463 88.3228908900874 H 0.0 **** 0.06
24133 H 92.67943763618328 264.75600170621533 88.22979356311887 H 0.0 **** 0.06
24134 H 91.50786913625134 263.89269824441743 87.20399501677633 H 0.0 **** 0.06
24135 H 91.53482013033607 263.603573044519 88.96016827988913 H 0.0 **** 0.06
24136 C 280.6610277856753 281.9459307949016 283.91063727385256 C 0.0 **** -0.24
24137 H 280.7088471228562 282.0052789344645 282.82287284003127 H 0.0 **** 0.06
24138 H 281.65024761887724 282.13821693275463 284.32825015794697 H 0.0 **** 0.06
24139 H 280.3286202140001 280.9510902654389 284.2060554086114 H 0.0 **** 0.06
24140 H 279.958397557461 282.6899358386981 284.28420601079375 H 0.0 **** 0.06
24141 C 229.6971506108726 292.15073490294446 287.93632002763974 C 0.0 **** -0.24
24142 H 230.68448902053854 292.55760797503075 287.7185965412464 H 0.0 **** 0.06
24143 H 229.4759846701019 292.2793418877548 288.9953002987486 H 0.0 **** 0.06
24144 H 229.67974375513978 291.089248927229 287.6868488268414 H 0.0 **** 0.06
24145 H 228.94903765912323 292.6755972431036 287.34183883591436 H 0.0 **** 0.06
24146 C 217.30337066180928 298.44786793436293 169.9906690732584 C 0.0 **** -0.24
24147 H 216.86847129623504 298.32678668817414 170.98270648325757 H 0.0 **** 0.06
24148 H 216.50662692793588 298.48142538823686 169.2465711787948 H 0.0 **** 0.06
24149 H 217.96431902243864 297.6081241461617 169.77800976627879 H 0.0 **** 0.06
24150 H 217.87272788061676 299.37686460629027 169.95428373569194 H 0.0 **** 0.06
24151 C 302.70471826893424 133.20491384709575 113.25755198291787 C 0.0 **** -0.24
24152 H 303.16508263906144 133.44504708115886 112.2992931319477 H 0.0 **** 0.06
24153 H 301.64931254519934 132.97634589020456 113.10678461004872 H 0.0 **** 0.06
24154 H 302.799952181612 134.05767137271914 113.92958282548031 H 0.0 **** 0.06
24155 H 303.2054735858541 132.3408338979413 113.69475365942026 H 0.0 **** 0.06
24156 C 296.53988934085555 69.35921161084201 222.98323519037223 C 0.0 **** -0.24
24157 H 296.089156984585 69.52734408227653 223.9607213333022 H 0.0 **** 0.06
24158 H 296.65456301623664 68.28807241330665 222.81514854455887 H 0.0 **** 0.06
24159 H 297.5170266220065 69.84000257178866 222.94653189345357 H 0.0 **** 0.06
24160 H 295.8981854515479 69.78170016605958 222.20980782419252 H 0.0 **** 0.06
24161 C 243.24972057433982 54.52646767060281 138.96890094013867 C 0.0 **** -0.24
24162 H 242.25691216956847 54.077950517529956 138.97990910074563 H 0.0 **** 0.06
24163 H 243.9137025273191 53.95569565529914 139.61842278314072 H 0.0 **** 0.06
24164 H 243.18835804660853 55.554817659969245 139.32387317253568 H 0.0 **** 0.06
24165 H 243.64121525133572 54.517001557224205 137.9516292650395 H 0.0 **** 0.06
24166 C 223.60828768047503 222.52287663301553 122.63782136101904 C 0.0 **** -0.24
24167 H 224.14901665216865 221.7118088900493 123.12510017590523 H 0.0 **** 0.06
24168 H 223.34379098152232 222.22596963072573 121.62243666409358 H 0.0 **** 0.06
24169 H 224.23792819117637 223.41179270106954 122.60422970161525 H 0.0 **** 0.06
24170 H 222.70013179664227 222.74264668129715 123.20004940299151 H 0.0 **** 0.06
24171 C 99.59247090023922 47.371679418491055 32.22314156354932 C 0.0 **** -0.24
24172 H 98.53386391899568 47.56566337348306 32.04946129424812 H 0.0 **** 0.06
24173 H 99.88845813164625 47.80221606405121 33.17986989829322 H 0.0 **** 0.06
24174 H 100.17984405566145 47.823544705322604 31.42299351802967 H 0.0 **** 0.06
24175 H 99.76581722398575 46.29651228835121 32.23853753711427 H 0.0 **** 0.06
24176 C 57.9025730316574 136.9394556012468 253.7906958868395 C 0.0 **** -0.24
24177 H 58.26271030826601 136.1612692424261 254.46353575067087 H 0.0 **** 0.06
24178 H 56.93880928305566 136.644049519972 253.37605262611828 H 0.0 **** 0.06
24179 H 58.61863888919936 137.08092647512882 252.9817960012801 H 0.0 **** 0.06
24180 H 57.78959330656011 137.87255208629284 254.34333761943185 H 0.0 **** 0.06
24181 C 156.02140361065176 30.457237903979575 158.15378971750079 C 0.0 **** -0.24
24182 H 155.60790823592862 30.827058964988964 157.21544846378026 H 0.0 **** 0.06
24183 H 155.25892777334758 29.892344929697828 158.69009641618862 H 0.0 **** 0.06
24184 H 156.34604100802972 31.29970357307863 158.76413511525476 H 0.0 **** 0.06
24185 H 156.87354657666089 29.810431219740934 157.94545386417298 H 0.0 **** 0.06
24186 C 84.89290447282494 291.27557065006044 118.0460153558798 C 0.0 **** -0.24
24187 H 85.96956528622681 291.2755940991946 117.87587470090932 H 0.0 **** 0.06
24188 H 84.39456268857822 291.77882936028084 117.2178212457965 H 0.0 **** 0.06
24189 H 84.6735255687563 291.80006083840715 118.97578376083086 H 0.0 **** 0.06
24190 H 84.53713114019789 290.24724287020285 118.1153959457846 H 0.0 **** 0.06
24191 C 33.26941565567773 52.76703890681142 221.41304745630816 C 0.0 **** -0.24
24192 H 33.30717720547034 52.87853937691716 220.32918119942258 H 0.0 **** 0.06
24193 H 34.24865267995631 52.459417663668575 221.78074077122733 H 0.0 **** 0.06
24194 H 32.529455933910725 52.01073675543327 221.67463112414788 H 0.0 **** 0.06
24195 H 32.99248440119692 53.71816816529872 221.86707560640124 H 0.0 **** 0.06
24196 C 185.91062517909808 26.62497301222092 217.69835358914287 C 0.0 **** -0.24
24197 H 185.7461988942306 26.513222338786875 216.626136195794 H 0.0 **** 0.06
24198 H 185.14598986053096 26.070584406284553 218.2421278542167 H 0.0 **** 0.06
24199 H 185.8540929010531 27.68047674309463 217.96635980200966 H 0.0 **** 0.06
24200 H 186.8955385873988 26.23668806143462 217.95761933079632 H 0.0 **** 0.06
24201 C 160.23955570248995 84.26020173383529 128.07851439985242 C 0.0 **** -0.24
24202 H 160.00717069039484 83.20365106375397 128.20905647823065 H 0.0 **** 0.06
24203 H 161.319550333425 84.38849068456739 128.001087689087 H 0.0 **** 0.06
24204 H 159.86778147259935 84.8231736507658 128.93435193727805 H 0.0 **** 0.06
24205 H 159.7643792013796 84.62625063343887 127.16856668463859 H 0.0 **** 0.06
24206 C 295.32131484944307 7.933594558872002 9.282463783987268 C 0.0 **** -0.24
24207 H 294.36256049015975 7.951523950799526 8.76367580420387 H 0.0 **** 0.06
24208 H 295.3656006008739 8.758218561101643 9.994466860359879 H 0.0 **** 0.06
24209 H 296.1293098200648 8.034671149264724 8.557650013609845 H 0.0 **** 0.06
24210 H 295.42717885139103 6.988030515354197 9.815004680278719 H 0.0 **** 0.06
24211 C 263.75060010190765 141.09571060465524 131.0123122044585 C 0.0 **** -0.24
24212 H 264.14699956156016 141.98617884392687 131.50032156267164 H 0.0 **** 0.06
24213 H 264.3281617292575 140.88619453939975 130.11183458896855 H 0.0 **** 0.06
24214 H 262.70771453872027 141.26412790979848 130.74352480910588 H 0.0 **** 0.06
24215 H 263.8184661846825 140.24769828738684 131.69376260949494 H 0.0 **** 0.06
24216 C 267.49963368955764 89.27869188538142 191.17016915315315 C 0.0 **** -0.24
24217 H 267.8999092961361 89.55046285162658 190.19350937108265 H 0.0 **** 0.06
24218 H 267.7654588711894 90.0450118421139 191.89725308209222 H 0.0 **** 0.06
24219 H 267.9187587282121 88.32125285865573 191.480288588112 H 0.0 **** 0.06
24220 H 266.4143202688763 89.1976333682054 191.10721165049756 H 0.0 **** 0.06
24221 C 9.558876818530166 149.24036324005328 171.55837883445395 C 0.0 **** -0.24
24222 H 9.499085432083291 148.92582538214776 170.51622564120527 H 0.0 **** 0.06
24223 H 10.527252673900492 148.9534123730241 171.9696764855454 H 0.0 **** 0.06
24224 H 8.764727762832322 148.75854532008935 172.12935442287517 H 0.0 **** 0.06
24225 H 9.444104231776805 150.32211158451366 171.61893556530606 H 0.0 **** 0.06
24226 C 80.43572095607837 37.52656182943389 47.45764003696715 C 0.0 **** -0.24
24227 H 81.5105562550115 37.661882142844775 47.34103884175025 H 0.0 **** 0.06
24228 H 80.2433785857973 36.60019383893513 48.00067053097206 H 0.0 **** 0.06
24229 H 79.96596656829544 37.47725318440274 46.47498911963629 H 0.0 **** 0.06
24230 H 80.0222844549732 38.367223487164466 48.015963950491226 H 0.0 **** 0.06
24231 C 227.15543594863487 29.835080343777378 223.85008659901695 C 0.0 **** -0.24
24232 H 227.4782743088441 29.290801253728347 222.9627653415754 H 0.0 **** 0.06
24233 H 226.50123152373152 30.655902787008387 223.5533688129048 H 0.0 **** 0.06
24234 H 228.02746428132133 30.23435249483606 224.3674082431513 H 0.0 **** 0.06
24235 H 226.6154956055006 29.161287380143136 224.5137399786851 H 0.0 **** 0.06
24236 C 69.60209572884284 54.49424913674241 252.077206275484 C 0.0 **** -0.24
24237 H 69.1538654544587 54.818812945669094 253.01636723388268 H 0.0 **** 0.06
24238 H 70.01948732118072 53.49485462413446 252.20071019225622 H 0.0 **** 0.06
24239 H 70.3951169623144 55.187244409924176 251.79559976629926 H 0.0 **** 0.06
24240 H 68.84075427941207 54.47815153014702 251.29788579551456 H 0.0 **** 0.06
24241 C 143.98959101357633 90.92809113537888 154.38955533678075 C 0.0 **** -0.24
24242 H 144.15117317530687 90.3962187145572 153.45182334735972 H 0.0 **** 0.06
24243 H 144.61574743176084 90.49107012530004 155.16740116126095 H 0.0 **** 0.06
24244 H 142.94170134554273 90.84660015694817 154.67696934214973 H 0.0 **** 0.06
24245 H 144.25031076859946 91.9787828203074 154.25966482272332 H 0.0 **** 0.06
24246 C 172.8335493702889 231.40170227823285 186.49255059381824 C 0.0 **** -0.24
24247 H 173.73423692017064 230.8666089192089 186.79515989507792 H 0.0 **** 0.06
24248 H 171.95664759214492 230.88731044658883 186.8876147301956 H 0.0 **** 0.06
24249 H 172.77872104115363 231.43254951450365 185.40429113347892 H 0.0 **** 0.06
24250 H 172.865848421975 232.4181644785943 186.88477593253782 H 0.0 **** 0.06
24251 C 31.515584548545974 292.3394053138745 41.47656965137773 C 0.0 **** -0.24
24252 H 31.937593424534725 291.336188643955 41.52702921068882 H 0.0 **** 0.06
24253 H 31.998196639359378 292.97369720452593 42.22048881344463 H 0.0 **** 0.06
24254 H 30.4453212163599 292.2945957488724 41.67607867092187 H 0.0 **** 0.06
24255 H 31.682890170563184 292.754601087661 40.482369142720614 H 0.0 **** 0.06
24256 C 222.85013561888005 68.80755919142086 0.8685136834432114 C 0.0 **** -0.24
24257 H 223.25084487457752 69.04207743218123 1.8544790151120196 H 0.0 **** 0.06
24258 H 223.548870138182 68.16056686746523 0.3365105235677248 H 0.0 **** 0.06
24259 H 222.70768234463756 69.72977772583599 0.3055968269119944 H 0.0 **** 0.06
24260 H 221.89338916305144 68.2968990920065 0.9777877972964717 H 0.0 **** 0.06
24261 C 37.05781147056359 157.69306248992507 56.39678272539044 C 0.0 **** -0.24
24262 H 37.97618659182095 158.06760150549115 55.943727523192706 H 0.0 **** 0.06
24263 H 36.19827973266055 158.11320168730037 55.87427186681475 H 0.0 **** 0.06
24264 H 37.02440431374296 157.98693797711843 57.44607940014089 H 0.0 **** 0.06
24265 H 37.03385215953543 156.60666097361565 56.32196267972893 H 0.0 **** 0.06
24266 C 217.14507369229867 180.5888661659656 66.41903118199394 C 0.0 **** -0.24
24267 H 218.2094159750904 180.55175418172297 66.18727796245173 H 0.0 **** 0.06
24268 H 216.57826185459606 180.1744793841902 65.58446105794104 H 0.0 **** 0.06
24269 H 216.8447658302129 181.6234636000513 66.58403629084626 H 0.0 **** 0.06
24270 H 216.9491668567224 180.00448159104553 67.3182010945313 H 0.0 **** 0.06
24271 C 249.74585481693273 156.72440855908275 132.2418710672432 C 0.0 **** -0.24
24272 H 249.5932082883192 155.81010512244495 131.6682818294705 H 0.0 **** 0.06
24273 H 250.8124427201822 156.95027619070237 132.28781036882708 H 0.0 **** 0.06
24274 H 249.3598911305148 156.5882322784434 133.25199155618822 H 0.0 **** 0.06
24275 H 249.22079747958134 157.54752983421764 131.7598995979809 H 0.0 **** 0.06
24276 C 268.86578870480855 271.565925404398 57.56893380482998 C 0.0 **** -0.24
24277 H 268.54682848035594 271.66137352484293 56.53139615347206 H 0.0 **** 0.06
24278 H 268.1222912793216 272.0234229026939 58.22142209290638 H 0.0 **** 0.06
24279 H 269.8244594344681 272.06778723329757 57.70210846156314 H 0.0 **** 0.06
24280 H 268.9705694338352 270.51016005478175 57.8205006526679 H 0.0 **** 0.06
24281 C 120.74596540948676 112.86716804896736 184.93393305174743 C 0.0 **** -0.24
24282 H 119.91582822224291 113.0929780063484 185.60242124046437 H 0.0 **** 0.06
24283 H 120.57119903471684 111.90486591609195 184.45055361609758 H 0.0 **** 0.06
24284 H 121.6718606879389 112.82494024662228 185.50616123072973 H 0.0 **** 0.06
24285 H 120.82245454433175 113.64561536373023 184.17499001101078 H 0.0 **** 0.06
24286 C 296.06621126697416 228.2741469792142 196.4018755495881 C 0.0 **** -0.24
24287 H 295.04425727902196 228.65085514929132 196.45345417796898 H 0.0 **** 0.06
24288 H 296.48882450937725 228.50250065749637 195.42383107648305 H 0.0 **** 0.06
24289 H 296.06247225286444 227.19471262497552 196.55399013020048 H 0.0 **** 0.06
24290 H 296.66664943718115 228.74781210188385 197.17781478699675 H 0.0 **** 0.06
24291 C 36.653254065175105 283.49257402574085 245.91335565815035 C 0.0 **** -0.24
24292 H 37.68730680244511 283.5758043500367 245.57856019760084 H 0.0 **** 0.06
24293 H 36.425715643298105 282.449738738119 246.13438773624168 H 0.0 **** 0.06
24294 H 35.988055440608406 283.85117769058786 245.12786119521235 H 0.0 **** 0.06
24295 H 36.51272241988096 284.09378794881525 246.81145588858843 H 0.0 **** 0.06
24296 C 32.536940888390035 63.79449944036273 297.4686180041523 C 0.0 **** -0.24
24297 H 31.88807489426108 64.2685741854514 296.7316007644813 H 0.0 **** 0.06
24298 H 32.452306137122804 64.3222593910912 298.4195184991277 H 0.0 **** 0.06
24299 H 33.56942849840644 63.8328745497773 297.12240270585437 H 0.0 **** 0.06
24300 H 32.235851466709846 62.7552424033222 297.6017695064804 H 0.0 **** 0.06
24301 C 220.7149094894274 143.58315984524506 229.78352130184547 C 0.0 **** -0.24
24302 H 219.9568806957497 142.80209830368693 229.7327910120284 H 0.0 **** 0.06
24303 H 221.499271799878 143.37510175341922 229.05491787607545 H 0.0 **** 0.06
24304 H 221.14518837865552 143.60677405702327 230.78412351602665 H 0.0 **** 0.06
24305 H 220.25854117499028 144.54733044358292 229.56021351583425 H 0.0 **** 0.06
24306 C 138.42926096902957 201.34830017983637 201.69589037062514 C 0.0 **** -0.24
24307 H 138.90488670226395 200.9447261992711 202.5893194671163 H 0.0 **** 0.06
24308 H 138.74885460362944 202.38059488878116 201.5489179301061 H 0.0 **** 0.06
24309 H 137.34592360767726 201.31709828204117 201.8173315440069 H 0.0 **** 0.06
24310 H 138.71569513805747 200.75196773982174 200.83017365406744 H 0.0 **** 0.06
24311 C 308.30080331747564 244.15608365207896 16.486139120446182 C 0.0 **** -0.24
24312 H 307.4671898847268 244.57034827351987 15.919464773002403 H 0.0 **** 0.06
24313 H 309.07673519470194 244.91313509788168 16.59892732649888 H 0.0 **** 0.06
24314 H 308.7077162679083 243.2942110325239 15.95541339349927 H 0.0 **** 0.06
24315 H 307.95092223347444 243.8434738636424 17.470007860339592 H 0.0 **** 0.06
24316 C 99.00851488727866 178.18879811054046 37.93144472518148 C 0.0 **** -0.24
24317 H 97.94852841705884 178.18112700694007 37.67643258904155 H 0.0 **** 0.06
24318 H 99.54799599345853 178.81676667505928 37.22157222014977 H 0.0 **** 0.06
24319 H 99.40032542333239 177.17251050191675 37.88925052547148 H 0.0 **** 0.06
24320 H 99.13692003951505 178.58574490749317 38.93855380974193 H 0.0 **** 0.06
24321 C 257.8785253508503 94.56198134271929 44.51182783095558 C 0.0 **** -0.24
24322 H 258.27287933207094 93.63595518249042 44.09300586450729 H 0.0 **** 0.06
24323 H 258.35726198479887 94.75757888955417 45.471670103320946 H 0.0 **** 0.06
24324 H 256.8021956991725 94.46648352219415 44.65493966506796 H 0.0 **** 0.06
24325 H 258.08197891499424 95.38572854846475 43.82814842150384 H 0.0 **** 0.06
24326 C 48.70408433447392 198.58607206822012 305.47655089486733 C 0.0 **** -0.24
24327 H 49.471999269434036 199.2682075230586 305.11306744346194 H 0.0 **** 0.06
24328 H 49.07932864460588 198.04693017773593 306.34676298539586 H 0.0 **** 0.06
24329 H 48.448220281165845 197.8749379214956 304.6902156178845 H 0.0 **** 0.06
24330 H 47.816501803253004 199.1537190357913 305.7553366886608 H 0.0 **** 0.06
24331 C 290.1758177212907 146.07804641162087 42.05591950122806 C 0.0 **** -0.24
24332 H 289.8842067748906 145.7184811098368 41.06910026763637 H 0.0 **** 0.06
24333 H 290.89452174634283 145.3867509444585 42.49572110452294 H 0.0 **** 0.06
24334 H 289.29441257903136 146.1408643915905 42.693708043183335 H 0.0 **** 0.06
24335 H 290.629335019961 147.0644246045014 41.9627826840227 H 0.0 **** 0.06
24336 C 21.672626168945754 48.42199808206303 53.07660737050469 C 0.0 **** -0.24
24337 H 20.928872682167253 47.655114209807806 53.29369774039344 H 0.0 **** 0.06
24338 H 21.208904555351438 49.40577846654455 53.135909667026 H 0.0 **** 0.06
24339 H 22.0704090377653 48.267050597478146 52.07352690632331 H 0.0 **** 0.06
24340 H 22.483791679293176 48.35674280530796 53.802347418607155 H 0.0 **** 0.06
24341 C 284.60484289727765 48.69767699870559 135.20494041329133 C 0.0 **** -0.24
24342 H 284.5709249385822 49.461557279098315 134.427149409171 H 0.0 **** 0.06
24343 H 283.7490582162951 48.817181274163914 135.86905610807992 H 0.0 **** 0.06
24344 H 285.5265442275694 48.80401509805091 135.77708656307493 H 0.0 **** 0.06
24345 H 284.57431798532883 47.710903604783596 134.74501015757303 H 0.0 **** 0.06
24346 C 67.4200861550338 238.14914204704255 178.59927622059894 C 0.0 **** -0.24
24347 H 67.6032470247055 237.2504519314411 178.0101552461199 H 0.0 **** 0.06
24348 H 67.14698981935979 237.8674384173554 179.61694749027157 H 0.0 **** 0.06
24349 H 66.60687577935681 238.71840854670563 178.14903640989377 H 0.0 **** 0.06
24350 H 68.32184095827054 238.76001534141812 178.62094271830125 H 0.0 **** 0.06
24351 C 125.31796600876552 90.65165280758742 307.03631622106843 C 0.0 **** -0.24
24352 H 125.16569006480677 91.38949082452348 307.8233984550465 H 0.0 **** 0.06
24353 H 125.2406216365161 91.13698404935084 306.06383548607124 H 0.0 **** 0.06
24354 H 124.5580301730896 89.87390571580269 307.1156530942809 H 0.0 **** 0.06
24355 H 126.30675689211523 90.20570926741044 307.14275539158064 H 0.0 **** 0.06
24356 C 214.66017595035424 138.22568442447098 63.25509360478728 C 0.0 **** -0.24
24357 H 214.50194629675934 137.24565415271798 63.70316545710054 H 0.0 **** 0.06
24358 H 214.13948845131915 138.27575346010403 62.29779220046211 H 0.0 **** 0.06
24359 H 215.72721640181632 138.38511646861065 63.09653619299911 H 0.0 **** 0.06
24360 H 214.27275900933182 138.99679770515766 63.92060902152747 H 0.0 **** 0.06
24361 C 146.443190861319 86.81484233668971 17.986321349477862 C 0.0 **** -0.24
24362 H 146.4063799557095 86.71385925350859 16.901195675489248 H 0.0 **** 0.06
24363 H 145.51822854608238 87.27130663494893 18.33958670652578 H 0.0 **** 0.06
24364 H 147.28823182154267 87.44469578748942 18.263134920311415 H 0.0 **** 0.06
24365 H 146.56015324410646 85.83050949189271 18.439144714077372 H 0.0 **** 0.06
24366 C 168.83425951590073 281.50753988299067 69.38752652848356 C 0.0 **** -0.24
24367 H 168.0519724307125 281.02249485147775 69.9707559692041 H 0.0 **** 0.06
24368 H 168.4223761159338 281.8437339977545 68.43612812047587 H 0.0 **** 0.06
24369 H 169.64271278130173 280.799971849598 69.20483240274058 H 0.0 **** 0.06
24370 H 169.21872683678498 282.3650789768145 69.94017373416804 H 0.0 **** 0.06
24371 C 110.75675729113948 270.16658476089935 3.102656695466578 C 0.0 **** -0.24
24372 H 111.39334817783825 270.4315672538272 3.9473830863857415 H 0.0 **** 0.06
24373 H 111.37236212289912 270.03021280039945 2.213238496964607 H 0.0 **** 0.06
24374 H 110.03580642522397 270.96473563156104 2.927738476212653 H 0.0 **** 0.06
24375 H 110.2271695263596 269.2396819300245 3.3237614064979084 H 0.0 **** 0.06
24376 C 30.084408055919454 98.8098379517111 84.78627399808337 C 0.0 **** -0.24
24377 H 30.145523465968324 98.75139348953252 85.87317578907238 H 0.0 **** 0.06
24378 H 30.58787227429565 97.94859089400171 84.34673260325243 H 0.0 **** 0.06
24379 H 30.566333183723515 99.72614579511148 84.4440409469677 H 0.0 **** 0.06
24380 H 29.037754134906805 98.81421040741759 84.48113828484634 H 0.0 **** 0.06
24381 C 193.83724322992015 31.57241516008355 247.29274452525482 C 0.0 **** -0.24
24382 H 194.50026183619605 30.951748261188357 247.89696574832035 H 0.0 **** 0.06
24383 H 194.43219992648528 32.24003929782904 246.67048743655627 H 0.0 **** 0.06
24384 H 193.19529449795488 32.161026843591486 247.94741196542918 H 0.0 **** 0.06
24385 H 193.22228425294122 30.934712261578483 246.65793130975467 H 0.0 **** 0.06
24386 C 53.95148796532857 59.517606357099936 34.82869668947964 C 0.0 **** -0.24
24387 H 54.735669360746215 59.906387626616805 34.17969514105607 H 0.0 **** 0.06
24388 H 53.36804909378509 58.77255043684849 34.286855279739086 H 0.0 **** 0.06
24389 H 53.29943623748798 60.33406862243703 35.13916772478839 H 0.0 **** 0.06
24390 H 54.4026677699936 59.05782998364262 35.7081663146877 H 0.0 **** 0.06
24391 C 92.60955454577282 269.3620591714331 94.94357816665715 C 0.0 **** -0.24
24392 H 93.14924068860611 268.9182689233416 94.10775615985716 H 0.0 **** 0.06
24393 H 93.24915410546001 269.3668343773673 95.82731849029616 H 0.0 **** 0.06
24394 H 91.71198067545694 268.7780464055837 95.14788574890412 H 0.0 **** 0.06
24395 H 92.32814484546134 270.38522179163925 94.69272724066022 H 0.0 **** 0.06
24396 C 155.77700421903074 125.85733296837628 278.0891836489977 C 0.0 **** -0.24
24397 H 155.21095243895098 126.09159323728719 277.1878591476609 H 0.0 **** 0.06
24398 H 155.13089463729028 125.95838894092381 278.9601770132765 H 0.0 **** 0.06
24399 H 156.6183963636073 126.54511790968982 278.17727727193073 H 0.0 **** 0.06
24400 H 156.14966543443035 124.83475905507683 278.0282364507459 H 0.0 **** 0.06
24401 C 184.27586726037703 104.69147419563356 72.19619582460328 C 0.0 **** -0.24
24402 H 183.62060859957273 104.41126388678032 71.37191637158764 H 0.0 **** 0.06
24403 H 183.71093597401602 104.68341090367198 73.12909827466689 H 0.0 **** 0.06
24404 H 184.6736194487549 105.69106785363832 72.01943873742667 H 0.0 **** 0.06
24405 H 185.09889715854882 103.9796515106514 72.26314807495524 H 0.0 **** 0.06
24406 C 163.44350258134443 107.26087266960556 281.15476967767296 C 0.0 **** -0.24
24407 H 163.43662754742252 106.25739959917632 281.58132082887965 H 0.0 **** 0.06
24408 H 163.01139516330852 107.96253299091597 281.87029629203926 H 0.0 **** 0.06
24409 H 162.85550807312967 107.27040561997137 280.2370715079901 H 0.0 **** 0.06
24410 H 164.46948789698683 107.5538763570269 280.93312735539865 H 0.0 **** 0.06
24411 C 23.547706551066227 115.69224143175546 152.68025004605926 C 0.0 **** -0.24
24412 H 24.37083734868267 114.9980307298548 152.8509150499733 H 0.0 **** 0.06
24413 H 23.859342414375732 116.45717725513973 151.96864999893495 H 0.0 **** 0.06
24414 H 23.26906061210363 116.16391345580303 153.62248796272212 H 0.0 **** 0.06
24415 H 22.691585829102905 115.14984428622418 152.27894717260665 H 0.0 **** 0.06
24416 C 165.0347617676154 238.9777146197325 178.42174753422364 C 0.0 **** -0.24
24417 H 164.4220057002894 239.80492359061873 178.78089468124534 H 0.0 **** 0.06
24418 H 164.83941602179232 238.09229921782762 179.02776235361932 H 0.0 **** 0.06
24419 H 166.08786802192844 239.24664931980266 178.49770600827298 H 0.0 **** 0.06
24420 H 164.78613980179136 238.76780489311994 177.3811206184787 H 0.0 **** 0.06
24421 C 192.27307118355378 90.57817878095932 58.03132174687636 C 0.0 **** -0.24
24422 H 191.45276237582908 91.07314303434663 57.51071229488045 H 0.0 **** 0.06
24423 H 191.8889680932283 89.71604755558201 58.5762115654706 H 0.0 **** 0.06
24424 H 192.73181935032073 91.2766861062787 58.730899465513545 H 0.0 **** 0.06
24425 H 193.01748119205263 90.24933112479482 57.30636153617098 H 0.0 **** 0.06
24426 C 59.758395064901265 42.29063326794204 62.12495021631918 C 0.0 **** -0.24
24427 H 59.230681325987774 41.95331468317556 63.01801109880347 H 0.0 **** 0.06
24428 H 60.77877316095166 42.568877174959425 62.390709927861394 H 0.0 **** 0.06
24429 H 59.24389420492412 43.154477716661404 61.7032240177696 H 0.0 **** 0.06
24430 H 59.7797694776109 41.48569554304538 61.39064119338704 H 0.0 **** 0.06
24431 C 215.80935711191006 177.31827225228295 160.2254763106311 C 0.0 **** -0.24
24432 H 216.34884127475672 176.52459675701266 159.70732150533928 H 0.0 **** 0.06
24433 H 216.44944843143494 178.19661810527344 160.310063640176 H 0.0 **** 0.06
24434 H 215.52694198473273 176.9759425403737 161.22112856668616 H 0.0 **** 0.06
24435 H 214.91257418723097 177.57427716023386 159.6616250703409 H 0.0 **** 0.06
24436 C 8.650826932759543 13.936822615849138 81.79681271524544 C 0.0 **** -0.24
24437 H 8.250315143219623 14.29143048124078 80.84675012719484 H 0.0 **** 0.06
24438 H 9.676367351127013 13.597154056335114 81.65331543966659 H 0.0 **** 0.06
24439 H 8.041495383658287 13.10948987687776 82.16136717587858 H 0.0 **** 0.06
24440 H 8.63428920637297 14.748574000624671 82.52360879387265 H 0.0 **** 0.06
24441 C 272.621155632609 66.90189129238198 246.59325497644687 C 0.0 **** -0.24
24442 H 272.3400162848337 66.67540857238384 247.6218100772182 H 0.0 **** 0.06
24443 H 273.36900421638046 67.69599237200947 246.58842495478353 H 0.0 **** 0.06
24444 H 271.7416439599034 67.22722161620516 246.03909368170468 H 0.0 **** 0.06
24445 H 273.0367501093185 66.00900132705007 246.12548035790698 H 0.0 **** 0.06
24446 C 247.63555001339836 117.15563802267519 88.59995155643688 C 0.0 **** -0.24
24447 H 246.8381251917289 116.42081587113887 88.48522835289506 H 0.0 **** 0.06
24448 H 248.05231008323702 117.39384852700235 87.62141890541639 H 0.0 **** 0.06
24449 H 248.41696480997527 116.74696377404948 89.2392391412385 H 0.0 **** 0.06
24450 H 247.23107556947804 118.06107279571617 89.05359310091634 H 0.0 **** 0.06
24451 C 197.99305924104715 227.4846576723357 44.070982621396354 C 0.0 **** -0.24
24452 H 197.063851233742 227.85761538176314 44.501969137257475 H 0.0 **** 0.06
24453 H 197.9242198388033 226.4052867593127 43.93626098992982 H 0.0 **** 0.06
24454 H 198.82198438158343 227.71554989172859 44.739804154218405 H 0.0 **** 0.06
24455 H 198.1620837553698 227.9608006798158 43.10511932866473 H 0.0 **** 0.06
24456 C 223.59710474832607 171.4733352282231 129.1765751712284 C 0.0 **** -0.24
24457 H 223.14849300795402 172.14560502643582 128.44531039424652 H 0.0 **** 0.06
24458 H 224.15484315046814 172.05550892480488 129.9108448876435 H 0.0 **** 0.06
24459 H 224.27252177681288 170.78413219434077 128.66930663534677 H 0.0 **** 0.06
24460 H 222.81159441409744 170.9083437276666 129.68089895634682 H 0.0 **** 0.06
24461 C 132.00243356418392 203.05826867123938 195.7261394417609 C 0.0 **** -0.24
24462 H 131.93631412481454 203.84916632615455 194.9792683234616 H 0.0 **** 0.06
24463 H 131.92354888206424 203.4930892640291 196.7238446189973 H 0.0 **** 0.06
24464 H 132.9594541318173 202.54482445924634 195.62839473047597 H 0.0 **** 0.06
24465 H 131.1916539469398 202.34578625828482 195.57515410461593 H 0.0 **** 0.06
24466 C 173.66579218663014 78.95207680358354 98.110436132558 C 0.0 **** -0.24
24467 H 174.31657762892854 79.19648095163177 98.95087130384283 H 0.0 **** 0.06
24468 H 172.6250300166248 79.04436551366686 98.41892315636397 H 0.0 **** 0.06
24469 H 173.86069649995443 77.9307150568242 97.78592136628697 H 0.0 **** 0.06
24470 H 173.86409927425785 79.63907271214148 97.28708792222054 H 0.0 **** 0.06
24471 C 137.23940330533068 251.72541637078083 242.36817421086505 C 0.0 **** -0.24
24472 H 137.7629288163603 251.84682560328883 243.31649756692923 H 0.0 **** 0.06
24473 H 136.8391111623618 252.6877790330876 242.0491982611424 H 0.0 **** 0.06
24474 H 136.42248825936565 251.01511216978585 242.49335047532583 H 0.0 **** 0.06
24475 H 137.93397987234616 251.35194228947148 241.61569972409396 H 0.0 **** 0.06
24476 C 51.80482459687232 45.31902667817815 285.1666116350711 C 0.0 **** -0.24
24477 H 51.613391043159936 44.55159316246602 284.41618352638784 H 0.0 **** 0.06
24478 H 51.169380559475485 45.143905253632084 286.03570640522423 H 0.0 **** 0.06
24479 H 51.58404626447293 46.30037478383747 284.74681624084803 H 0.0 **** 0.06
24480 H 52.850960553580535 45.278613763160536 285.46748320130087 H 0.0 **** 0.06
24481 C 9.294675555014578 6.74745168605466 157.48143083896463 C 0.0 **** -0.24
24482 H 9.436745679911056 5.974481738327938 156.7266143802371 H 0.0 **** 0.06
24483 H 8.354287248831142 6.575782645415927 158.00502793918002 H 0.0 **** 0.06
24484 H 9.270534357013446 7.724737154832951 156.99972796038077 H 0.0 **** 0.06
24485 H 10.119270846288842 6.7136379536160575 158.19407843135707 H 0.0 **** 0.06
24486 C 298.79502956301104 46.22899109734098 115.82776129008334 C 0.0 **** -0.24
24487 H 299.1373561776621 45.20861686164497 115.65202209959924 H 0.0 **** 0.06
24488 H 299.3696459398091 46.916497645579284 115.20647864996417 H 0.0 **** 0.06
24489 H 298.9361028856942 46.483380588653176 116.87823530419243 H 0.0 **** 0.06
24490 H 297.73766890781405 46.304552916247786 115.57405436025545 H 0.0 **** 0.06
24491 C 296.3733503569947 179.5455199746226 266.9600197877757 C 0.0 **** -0.24
24492 H 297.00571235711544 178.9184027147096 266.33231795660663 H 0.0 **** 0.06
24493 H 295.504254705869 178.97332177058558 267.28716092229354 H 0.0 **** 0.06
24494 H 296.0438654825164 180.4143857154882 266.3906592782686 H 0.0 **** 0.06
24495 H 296.9397916957632 179.87569988719423 267.8313112368078 H 0.0 **** 0.06
24496 C 259.81809986112324 96.29512395112607 71.67269255449756 C 0.0 **** -0.24
24497 H 259.94983390228754 96.19898059654608 72.74980533490037 H 0.0 **** 0.06
24498 H 260.4580541116372 97.09383401732151 71.29759638325442 H 0.0 **** 0.06
24499 H 258.77638283652715 96.53106586757832 71.45370532701082 H 0.0 **** 0.06
24500 H 260.08686817364895 95.35573294061928 71.18886771372766 H 0.0 **** 0.06
24501 C 274.999974238684 182.5743718096271 92.40010261013992 C 0.0 **** -0.24
24502 H 275.4552325398856 181.90503613154675 93.13007382826686 H 0.0 **** 0.06
24503 H 275.52115505253454 182.4800929922851 91.44692140061917 H 0.0 **** 0.06
24504 H 275.0722492083152 183.60187714556537 92.75457469189729 H 0.0 **** 0.06
24505 H 273.9515510593004 182.30753463561086 92.26835623314906 H 0.0 **** 0.06
24506 C 189.33510679199338 19.52129791606488 136.99244651287765 C 0.0 **** -0.24
24507 H 189.94169175397718 18.662734550620115 136.7038395438715 H 0.0 **** 0.06
24508 H 189.44671813687484 19.702861386828374 138.0616438594812 H 0.0 **** 0.06
24509 H 188.28854457690068 19.31925458527496 136.76430538849428 H 0.0 **** 0.06
24510 H 189.66401195551828 20.401375123796754 136.43808935323946 H 0.0 **** 0.06
24511 C 197.89994818474696 247.74144633617212 153.74395151992297 C 0.0 **** -0.24
24512 H 196.97178338492654 247.16902072352264 153.7713992968359 H 0.0 **** 0.06
24513 H 198.68176509664534 247.1415170439439 153.2785683349237 H 0.0 **** 0.06
24514 H 198.19632575982484 248.00120993748726 154.7597273563792 H 0.0 **** 0.06
24515 H 197.74685678679845 248.65276267583062 153.16609002978208 H 0.0 **** 0.06
24516 C 44.7323831184126 266.70572008501705 69.58738203076567 C 0.0 **** -0.24
24517 H 44.61447858190644 266.2757043665214 70.58221636566572 H 0.0 **** 0.06
24518 H 44.61176331390166 265.9230268278278 68.83714374430909 H 0.0 **** 0.06
24519 H 45.72533024824895 267.1457552883717 69.49721349239633 H 0.0 **** 0.06
24520 H 43.97772582079622 267.47706698402936 69.4325250770654 H 0.0 **** 0.06
24521 C 30.143520346414647 210.78076391448553 85.19514969733117 C 0.0 **** -0.24
24522 H 29.735888026909862 209.8238914949365 84.86892061347012 H 0.0 **** 0.06
24523 H 30.488391150291733 211.34376102706892 84.3276056167553 H 0.0 **** 0.06
24524 H 30.98083957236139 210.60673219642803 85.87167599342442 H 0.0 **** 0.06
24525 H 29.369806710880027 211.34743640385153 85.71372452556915 H 0.0 **** 0.06
24526 C 20.71607578377349 297.0702542692864 217.5610417348521 C 0.0 **** -0.24
24527 H 21.385581357264726 296.36705303022507 217.06612492118387 H 0.0 **** 0.06
24528 H 20.49687828216176 297.8987988436663 216.8860419550359 H 0.0 **** 0.06
24529 H 21.193352092859158 297.45186649933294 218.46301500249095 H 0.0 **** 0.06
24530 H 19.789160349896648 296.5632616237276 217.82662897031946 H 0.0 **** 0.06
24531 C 184.53028093205478 31.10180425721836 284.4941667303634 C 0.0 **** -0.24
24532 H 184.2520579960348 31.43668474958588 285.49300075045005 H 0.0 **** 0.06
24533 H 185.30659416656698 30.340986019239296 284.5689244462585 H 0.0 **** 0.06
24534 H 184.9051820936171 31.9489609599828 283.91890505539726 H 0.0 **** 0.06
24535 H 183.65629896348554 30.682543813982335 283.995408722348 H 0.0 **** 0.06
24536 C 280.46902507408123 130.5169372882348 115.7405941171998 C 0.0 **** -0.24
24537 H 280.64569087847184 129.50805200551406 116.11256458208567 H 0.0 **** 0.06
24538 H 281.39713705672887 131.08656474769725 115.78153373756959 H 0.0 **** 0.06
24539 H 279.7143776740702 131.00426993660753 116.35880811433569 H 0.0 **** 0.06
24540 H 280.1173158041529 130.46725294480558 114.71042743054471 H 0.0 **** 0.06
24541 C 50.713774927480216 161.68790342969402 147.66388757064067 C 0.0 **** -0.24
24542 H 51.79160769705888 161.80726647570975 147.54783870151653 H 0.0 **** 0.06
24543 H 50.30013344369422 161.2339249741902 146.76261367163954 H 0.0 **** 0.06
24544 H 50.255242768665084 162.66362180765975 147.82329037583656 H 0.0 **** 0.06
24545 H 50.510185503054004 161.04630364157896 148.52112231527536 H 0.0 **** 0.06
24546 C 125.55880011081996 277.9688604344202 255.19177510400723 C 0.0 **** -0.24
24547 H 124.93704174993849 277.4498847047927 255.92140246331587 H 0.0 **** 0.06
24548 H 125.78447429178348 277.29748457236366 254.3636513433543 H 0.0 **** 0.06
24549 H 126.48734912614205 278.28529063783515 255.66694770689318 H 0.0 **** 0.06
24550 H 125.02587067209006 278.84334454584706 254.81721255071272 H 0.0 **** 0.06
24551 C 232.95774707312546 280.39922060384083 87.1119672820843 C 0.0 **** -0.24
24552 H 233.71777982445664 280.23549274519945 86.34851017677843 H 0.0 **** 0.06
24553 H 232.00635161073333 280.6308549635646 86.63236478966351 H 0.0 **** 0.06
24554 H 233.2554654555404 281.2307427277124 87.74934712502886 H 0.0 **** 0.06
24555 H 232.85016105072614 279.49789429331946 87.71543681723409 H 0.0 **** 0.06
24556 C 296.4057085793814 301.8619213467292 5.1957869540249675 C 0.0 **** -0.24
24557 H 295.9160083018776 301.45307428218723 4.312835053266809 H 0.0 **** 0.06
24558 H 295.6956647326086 302.47239947515016 5.755251473162403 H 0.0 **** 0.06
24559 H 297.2511504965309 302.47816024748346 4.8891520997302536 H 0.0 **** 0.06
24560 H 296.75912017984024 301.0463276805913 5.826068287207164 H 0.0 **** 0.06
24561 C 149.0265554280432 285.5892579407896 211.71441618844491 C 0.0 **** -0.24
24562 H 149.02487990728184 285.94762006546074 212.74346824101264 H 0.0 **** 0.06
24563 H 148.60607836731128 286.35632420797555 211.06243479081826 H 0.0 **** 0.06
24564 H 148.42519515923553 284.6829581344779 211.6448328786119 H 0.0 **** 0.06
24565 H 150.04944182466977 285.3713586718606 211.40723923898236 H 0.0 **** 0.06
24566 C 309.0869605328995 112.88141374621065 281.11605747814764 C 0.0 **** -0.24
24567 H 309.1468413791264 112.77329784160679 282.19895155635265 H 0.0 **** 0.06
24568 H 310.0924077567887 112.87986036660848 280.6950054416757 H 0.0 **** 0.06
24569 H 308.59177130560255 113.82080509187523 280.8720351947254 H 0.0 **** 0.06
24570 H 308.5171578596482 112.05018300108952 280.69985354351 H 0.0 **** 0.06
24571 C 243.2824032055508 241.71044674159958 24.39183253965416 C 0.0 **** -0.24
24572 H 242.89052655956849 240.80555029043768 23.927493809245618 H 0.0 **** 0.06
24573 H 243.9875149803397 242.18985561929168 23.71247191010292 H 0.0 **** 0.06
24574 H 243.79023213457296 241.452876512961 25.320647753155015 H 0.0 **** 0.06
24575 H 242.45999953232953 242.3937296557248 24.60494051672495 H 0.0 **** 0.06
24576 C 227.43829603755847 128.78198407651226 309.7016693364801 C 0.0 **** -0.24
24577 H 228.19794627910662 129.23206804193723 310.34123269311425 H 0.0 **** 0.06
24578 H 227.0094813776472 129.54708245798457 309.0535722686034 H 0.0 **** 0.06
24579 H 226.65335586437442 128.34791290583703 310.3204863453477 H 0.0 **** 0.06
24580 H 227.8930909910076 128.00206878458908 309.0916914405477 H 0.0 **** 0.06
24581 C 49.671555999516556 194.74822140882986 284.93743232901943 C 0.0 **** -0.24
24582 H 49.881807983558105 195.728016759404 285.3670665074071 H 0.0 **** 0.06
24583 H 50.23034686922557 194.63172785981743 284.0088520326499 H 0.0 **** 0.06
24584 H 48.603777921220626 194.662566712579 284.73351174933055 H 0.0 **** 0.06
24585 H 49.97022118548108 193.97200378902534 285.6420170745065 H 0.0 **** 0.06
24586 C 190.66888247022803 243.79274384041577 222.39533172077515 C 0.0 **** -0.24
24587 H 189.6933093175034 243.36765581260588 222.1562594535149 H 0.0 **** 0.06
24588 H 190.53498219330078 244.7666665930632 222.86498215760054 H 0.0 **** 0.06
24589 H 191.24849058731127 243.9065994681476 221.47901044599382 H 0.0 **** 0.06
24590 H 191.19742868466574 243.12800658613054 223.07861104281875 H 0.0 **** 0.06
24591 C 19.140497906247532 195.56893710854 35.34291208390226 C 0.0 **** -0.24
24592 H 18.928151759224193 195.87291500698342 34.3172776914536 H 0.0 **** 0.06
24593 H 20.13101832849611 195.9231287996102 35.62813460802994 H 0.0 **** 0.06
24594 H 19.10986684264654 194.48164915954453 35.41328966400093 H 0.0 **** 0.06
24595 H 18.394390938337196 195.99825328971946 36.010517770347036 H 0.0 **** 0.06
24596 C 212.1767363438648 31.564044315720196 123.55360997539819 C 0.0 **** -0.24
24597 H 212.00085286656594 32.32591488019423 122.79410184776776 H 0.0 **** 0.06
24598 H 212.69731967595692 32.009994571758796 124.400576745411 H 0.0 **** 0.06
24599 H 212.7860457805068 30.765263085488442 123.13141226798044 H 0.0 **** 0.06
24600 H 211.22193078444545 31.156711066394934 123.88714306350354 H 0.0 **** 0.06
24601 C 263.612026767108 61.08400115223847 257.42978632882483 C 0.0 **** -0.24
24602 H 264.01867941532015 61.683216262073074 256.6147125721642 H 0.0 **** 0.06
24603 H 262.7346784731385 60.54153494635179 257.07825719185445 H 0.0 **** 0.06
24604 H 263.329696219104 61.738609279818405 258.25447536837584 H 0.0 **** 0.06
24605 H 264.36636007582325 60.3747610679809 257.7697482531463 H 0.0 **** 0.06
24606 C 44.89534680486793 243.84698873153482 278.30598648156047 C 0.0 **** -0.24
24607 H 44.251269644985996 242.97074373485194 278.386445616559 H 0.0 **** 0.06
24608 H 45.335255557749434 243.88387300684522 277.30935706721914 H 0.0 **** 0.06
24609 H 45.68772672978602 243.7847815640335 279.0512506418221 H 0.0 **** 0.06
24610 H 44.305147429555745 244.74766378485725 278.47739388915346 H 0.0 **** 0.06
24611 C 72.30342639600266 275.25601155887057 15.909676672554369 C 0.0 **** -0.24
24612 H 71.5537676181714 275.63009546669406 15.212307833749861 H 0.0 **** 0.06
24613 H 71.89228562231787 275.25275518995977 16.919389013919883 H 0.0 **** 0.06
24614 H 73.182397512334 275.90101282571334 15.877825467669851 H 0.0 **** 0.06
24615 H 72.58749095481693 274.2421662874754 15.628928673722015 H 0.0 **** 0.06
24616 C 160.21448128159994 281.19774647628645 245.52577929136203 C 0.0 **** -0.24
24617 H 160.17471249689652 281.394567434482 244.4539736613364 H 0.0 **** 0.06
24618 H 159.23986998902717 280.8474581081017 245.86670192272402 H 0.0 **** 0.06
24619 H 160.47691779560392 282.1141210005137 246.05360327092595 H 0.0 **** 0.06
24620 H 160.9654965903136 280.43420919894487 245.72690407664658 H 0.0 **** 0.06
24621 C 115.4192467858901 291.15076291217275 33.992959156269336 C 0.0 **** -0.24
24622 H 115.00437158766391 290.15793034988167 34.16781173555748 H 0.0 **** 0.06
24623 H 115.17369457311662 291.79972986185965 34.83287364810141 H 0.0 **** 0.06
24624 H 114.99703145936027 291.5641726176992 33.07649094198351 H 0.0 **** 0.06
24625 H 116.50219125903257 291.07864259900737 33.89315295561008 H 0.0 **** 0.06
24626 C 294.1943020504233 74.96584114732806 295.55549400026837 C 0.0 **** -0.24
24627 H 293.68365621271846 74.49056441843285 296.3932554287776 H 0.0 **** 0.06
24628 H 294.8006661662252 74.22625573380591 295.03299297330943 H 0.0 **** 0.06
24629 H 294.8361336794858 75.76491182773776 295.928081658281 H 0.0 **** 0.06
24630 H 293.4565387864854 75.38260973993101 294.86964587000404 H 0.0 **** 0.06
24631 C 190.3492582227159 7.367445349826397 196.16296251921727 C 0.0 **** -0.24
24632 H 190.98777265906676 8.2397485079468 196.02806678530482 H 0.0 **** 0.06
24633 H 189.6250230863206 7.566434865260277 196.9537241747242 H 0.0 **** 0.06
24634 H 190.9602014134556 6.507545809066102 196.437224340314 H 0.0 **** 0.06
24635 H 189.82199844756906 7.15589439926255 195.23192670817565 H 0.0 **** 0.06
24636 C 43.703806164774136 182.82982126536746 236.09961120462327 C 0.0 **** -0.24
24637 H 44.18259087263522 181.85510561211862 236.19743222612283 H 0.0 **** 0.06
24638 H 42.939288500963556 182.78217620110502 235.32353257213487 H 0.0 **** 0.06
24639 H 44.450637371088675 183.5756979921539 235.83007382035856 H 0.0 **** 0.06
24640 H 43.24164078248771 183.10352703133128 237.04778400560303 H 0.0 **** 0.06
24641 C 13.885648292635906 128.37047655020427 138.36185268907914 C 0.0 **** -0.24
24642 H 14.08415929803968 129.42975802462945 138.526210501163 H 0.0 **** 0.06
24643 H 14.748310511502382 127.78564976823921 138.68031913793683 H 0.0 **** 0.06
24644 H 13.700128847605853 128.196096440994 137.30169917854815 H 0.0 **** 0.06
24645 H 13.00987873414006 128.07051819158593 138.93819548466448 H 0.0 **** 0.06
24646 C 36.49835544881583 275.374581491017 276.21789031304655 C 0.0 **** -0.24
24647 H 36.20600902652848 274.3715786697779 276.5285303931147 H 0.0 **** 0.06
24648 H 36.84744866799571 275.34719936513477 275.18514857463396 H 0.0 **** 0.06
24649 H 37.298749338042796 275.73572392463143 276.86259265392687 H 0.0 **** 0.06
24650 H 35.641290968710535 276.0435286032609 276.2933130302099 H 0.0 **** 0.06
24651 C 131.26432704596516 206.10939688274328 110.8386687119575 C 0.0 **** -0.24
24652 H 131.849801028128 206.17318045190456 111.75665304131451 H 0.0 **** 0.06
24653 H 130.98343237184568 207.1134350434886 110.51742750482273 H 0.0 **** 0.06
24654 H 130.3654490833864 205.52172374701252 111.0216824769212 H 0.0 **** 0.06
24655 H 131.85970519267815 205.63208075963445 110.06058868443418 H 0.0 **** 0.06
24656 C 62.21735180406603 299.2838438610998 233.45367538535 C 0.0 **** -0.24
24657 H 61.22086247240338 299.2003079412307 233.88808431080844 H 0.0 **** 0.06
24658 H 62.844988665360944 299.8959908872003 234.1013414558028 H 0.0 **** 0.06
24659 H 62.14691735983013 299.74896937441895 232.47017978395914 H 0.0 **** 0.06
24660 H 62.654284399023965 298.2906006896337 233.35463369762013 H 0.0 **** 0.06
24661 C 120.18426958829065 92.59023559811868 302.7897211530499 C 0.0 **** -0.24
24662 H 120.3272659269916 93.16812404664427 301.8759540361963 H 0.0 **** 0.06
24663 H 119.26132027353944 92.9065828908839 303.2774437281634 H 0.0 **** 0.06
24664 H 121.02606180122527 92.75919047924924 303.46034285183515 H 0.0 **** 0.06
24665 H 120.12181865653898 91.5311101735669 302.5431191280503 H 0.0 **** 0.06
24666 C 150.58992180072863 74.79753914800278 23.473821930963425 C 0.0 **** -0.24
24667 H 151.27468036701435 74.46755659296744 22.693184009100264 H 0.0 **** 0.06
24668 H 149.85836267780388 75.48448805912366 23.048148589191328 H 0.0 **** 0.06
24669 H 151.15137377785106 75.30484417966662 24.259271890254865 H 0.0 **** 0.06
24670 H 150.07547286700424 73.93373881740209 23.89554178570063 H 0.0 **** 0.06
24671 C 209.82938771264025 157.71937370700147 303.4000017770235 C 0.0 **** -0.24
24672 H 210.13546437884048 157.7939404853529 302.3562061922265 H 0.0 **** 0.06
24673 H 209.17395973794135 158.55409575034605 303.64637674638266 H 0.0 **** 0.06
24674 H 210.71179423918915 157.74791122315406 304.0395482442141 H 0.0 **** 0.06
24675 H 209.2969963255972 156.78028271428713 303.55588594952144 H 0.0 **** 0.06
24676 C 134.34387741901824 3.504640639935971 58.69078261726122 C 0.0 **** -0.24
24677 H 134.05741383023565 4.214935859969856 57.91469327561907 H 0.0 **** 0.06
24678 H 134.04843367001712 2.4992628362595326 58.38977295697532 H 0.0 **** 0.06
24679 H 133.84527312159958 3.766266510859495 59.62405321465346 H 0.0 **** 0.06
24680 H 135.42425157690235 3.539628769872948 58.8338136042147 H 0.0 **** 0.06
24681 C 154.86289211375282 93.39986487535174 119.1342636965002 C 0.0 **** -0.24
24682 H 154.2099596753685 92.9365687829702 118.39584829636274 H 0.0 **** 0.06
24683 H 155.42818595041388 94.20484142765773 118.66485664772117 H 0.0 **** 0.06
24684 H 155.5517535391312 92.65359432828961 119.52937197876406 H 0.0 **** 0.06
24685 H 154.26102351411203 93.80484351309727 119.94817452969255 H 0.0 **** 0.06
24686 C 10.412322239998673 154.45382542176446 137.64492962258058 C 0.0 **** -0.24
24687 H 10.954758816987692 155.11653596745538 138.31869489274015 H 0.0 **** 0.06
24688 H 9.411564647201644 154.27500599260316 138.03916078039632 H 0.0 **** 0.06
24689 H 10.94409256792457 153.50660434964084 137.56079339834633 H 0.0 **** 0.06
24690 H 10.337879542999076 154.91726399980286 136.66103210738842 H 0.0 **** 0.06
24691 C 259.02293291690654 70.9611465951653 24.644729214649374 C 0.0 **** -0.24
24692 H 259.13922083416446 70.26535277191212 23.81364412460252 H 0.0 **** 0.06
24693 H 258.40099075389713 70.5060495907816 25.415895872875154 H 0.0 **** 0.06
24694 H 258.5484703061418 71.87544599926528 24.287790589371525 H 0.0 **** 0.06
24695 H 260.00217900531266 71.198515963815 25.059432997191294 H 0.0 **** 0.06
24696 C 63.813530330234784 160.43801982869962 141.50917097070402 C 0.0 **** -0.24
24697 H 64.43810831047975 161.08851585051679 142.12052080274063 H 0.0 **** 0.06
24698 H 63.98442510860181 159.39948049809755 141.79370987189787 H 0.0 **** 0.06
24699 H 64.06765447160032 160.57394923255674 140.457904368742 H 0.0 **** 0.06
24700 H 62.764755189593245 160.69008923660544 141.6639807407542 H 0.0 **** 0.06
24701 C 39.81674489134673 41.36865731681516 36.80120433811962 C 0.0 **** -0.24
24702 H 39.91058873440227 40.44272649608101 37.36980683934917 H 0.0 **** 0.06
24703 H 39.72738950242223 42.20950529931511 37.48918009039468 H 0.0 **** 0.06
24704 H 38.92950454987738 41.318345961144814 36.17007701843073 H 0.0 **** 0.06
24705 H 40.7006752717549 41.501564983598655 36.17731173096723 H 0.0 **** 0.06
24706 C 122.74097559442902 158.11370383706748 300.84398521605897 C 0.0 **** -0.24
24707 H 121.9223422613357 158.8091386134987 301.03151732390677 H 0.0 **** 0.06
24708 H 122.41346602992326 157.3473211533921 300.1414822500018 H 0.0 **** 0.06
24709 H 123.03934089157798 157.64376560837064 301.7816080424935 H 0.0 **** 0.06
24710 H 123.58762137800699 158.65540184527418 300.42334816247455 H 0.0 **** 0.06
24711 C 284.2010766489627 271.17524837278216 99.31167671754545 C 0.0 **** -0.24
24712 H 284.58823807391593 270.4132175059872 99.98814869734755 H 0.0 **** 0.06
24713 H 283.3198764218133 270.79092574657597 98.79931588529456 H 0.0 **** 0.06
24714 H 284.96559777126106 271.43219043175384 98.57923383458632 H 0.0 **** 0.06
24715 H 283.93147983935967 272.0641300448216 99.88264194102325 H 0.0 **** 0.06
24716 C 247.00214913731594 203.0865820601801 287.5505162504907 C 0.0 **** -0.24
24717 H 247.15310669862993 202.36097363573072 286.7512168201645 H 0.0 **** 0.06
24718 H 245.99764441099734 202.9733890251366 287.9596433048734 H 0.0 **** 0.06
24719 H 247.1215183471104 204.09404552602547 287.15312135569206 H 0.0 **** 0.06
24720 H 247.73620648442238 202.91693269598977 288.33818639342684 H 0.0 **** 0.06
24721 C 217.96487039750903 200.92559200302014 118.60004529858284 C 0.0 **** -0.24
24722 H 217.69745066715586 199.87302657412567 118.7009911374611 H 0.0 **** 0.06
24723 H 217.21964564117994 201.4314456857211 117.98526528170984 H 0.0 **** 0.06
24724 H 218.9432320713032 201.00799882242706 118.12648442399828 H 0.0 **** 0.06
24725 H 217.99713893744462 201.38840903282835 119.58578841061234 H 0.0 **** 0.06
24726 C 208.99399085742328 1.5875490271362196 27.7092154333848 C 0.0 **** -0.24
24727 H 209.92855906193307 1.029036294636569 27.762207404157863 H 0.0 **** 0.06
24728 H 208.96466823645088 2.160812216287013 26.782339038172097 H 0.0 **** 0.06
24729 H 208.9276090388604 2.2667267829062325 28.559381524119033 H 0.0 **** 0.06
24730 H 208.15381971859262 0.892777073073205 27.73419030664536 H 0.0 **** 0.06
24731 C 214.47787295890907 290.6802242443862 198.48097211140322 C 0.0 **** -0.24
24732 H 215.27602101741584 291.3808418731396 198.7273518329742 H 0.0 **** 0.06
24733 H 214.7391327708789 289.68792831013394 198.8498873367974 H 0.0 **** 0.06
24734 H 214.34816890348816 290.64399662418685 197.39945846555554 H 0.0 **** 0.06
24735 H 213.54969154715087 291.0093453520815 198.94828882824027 H 0.0 **** 0.06
24736 C 42.83214878525507 307.34497779183357 170.67461170318614 C 0.0 **** -0.24
24737 H 43.34745555061576 308.12853606458305 171.23032090923584 H 0.0 **** 0.06
24738 H 41.7746765451063 307.5935177028467 170.59225444463857 H 0.0 **** 0.06
24739 H 42.943059764453324 306.39540326061126 171.19854043503176 H 0.0 **** 0.06
24740 H 43.26563909334499 307.2620833157316 169.67826035659272 H 0.0 **** 0.06
24741 C 127.23109634792829 198.33961280431788 156.60735876604156 C 0.0 **** -0.24
24742 H 126.59447855572697 198.0315272642627 157.43671781753898 H 0.0 **** 0.06
24743 H 127.48535857668551 197.46873962807678 156.00288793841054 H 0.0 **** 0.06
24744 H 128.14363808560609 198.79055644233665 156.99715584391157 H 0.0 **** 0.06
24745 H 126.70028764670784 199.06636647106308 155.99281944410774 H 0.0 **** 0.06
24746 C 58.42408819112521 249.92692849588542 186.32634199818892 C 0.0 **** -0.24
24747 H 57.95654683422865 248.9930245074161 186.0150306299737 H 0.0 **** 0.06
24748 H 59.273993870329946 249.7083638876607 186.97360099018113 H 0.0 **** 0.06
24749 H 57.69924365524395 250.5329556351525 186.86996949533426 H 0.0 **** 0.06
24750 H 58.766354773988326 250.47203779831688 185.44719082772747 H 0.0 **** 0.06
24751 C 41.2942822940002 171.66334017994348 305.5372586224162 C 0.0 **** -0.24
24752 H 41.61927684970081 170.84527209870413 306.1815252686284 H 0.0 **** 0.06
24753 H 40.81672267647713 171.25588331840413 304.645925873276 H 0.0 **** 0.06
24754 H 42.15804360211277 172.26193330718723 305.2472551356224 H 0.0 **** 0.06
24755 H 40.58291676515944 172.2890053265918 306.0773887583118 H 0.0 **** 0.06
24756 C 109.11968903789997 216.03728934500418 201.20628569328977 C 0.0 **** -0.24
24757 H 109.83429792220218 216.2378947360584 202.0050090327145 H 0.0 **** 0.06
24758 H 109.49592038228076 215.23200503182477 200.57710329486184 H 0.0 **** 0.06
24759 H 108.98485690022281 216.9369713540936 200.60501792287442 H 0.0 **** 0.06
24760 H 108.16408056101875 215.74378218864052 201.6405820636624 H 0.0 **** 0.06
24761 C 277.602768340963 67.22259413503377 87.33963225867583 C 0.0 **** -0.24
24762 H 277.62585702612876 68.3098189696108 87.27989606455554 H 0.0 **** 0.06
24763 H 278.0675354287401 66.8001810245334 86.44822322102203 H 0.0 **** 0.06
24764 H 276.5684922976032 66.88370199189657 87.40556809934887 H 0.0 **** 0.06
24765 H 278.1488770883292 66.89537138215425 88.22438920609028 H 0.0 **** 0.06
24766 C 177.23748207301986 300.47636402331216 182.12427854740315 C 0.0 **** -0.24
24767 H 178.20106404305704 300.6157872262345 182.61448902061431 H 0.0 **** 0.06
24768 H 176.97148483397928 301.3826820680724 181.58202084853104 H 0.0 **** 0.06
24769 H 176.47637206466203 300.2645398270115 182.87539532662237 H 0.0 **** 0.06
24770 H 177.30283783420612 299.64091670684144 181.42702769069996 H 0.0 **** 0.06
24771 C 255.61780253502465 214.33882217430352 39.14913238411796 C 0.0 **** -0.24
24772 H 256.5688618697697 214.8534949380891 39.013727671111326 H 0.0 **** 0.06
24773 H 254.96600403618896 214.55172684146683 38.30106712994859 H 0.0 **** 0.06
24774 H 255.14463382097045 214.68682445362313 40.067797249745524 H 0.0 **** 0.06
24775 H 255.79202982903652 213.26545468256407 39.21387357011238 H 0.0 **** 0.06
24776 C 151.55928112509184 134.87231493665158 311.31023790352907 C 0.0 **** -0.24
24777 H 151.79689830365282 133.83285344472085 311.0825160637219 H 0.0 **** 0.06
24778 H 152.47267669991595 135.40440841250208 311.57371541885914 H 0.0 **** 0.06
24779 H 150.86096588255504 134.9099864952698 312.1466791915655 H 0.0 **** 0.06
24780 H 151.10473323972332 135.34073321270702 310.43707017045796 H 0.0 **** 0.06
24781 C 42.4208013054504 201.76930144922903 49.73994453319207 C 0.0 **** -0.24
24782 H 41.36805442367964 202.01822982680295 49.872311501013144 H 0.0 **** 0.06
24783 H 42.72380502280504 202.00692044577733 48.71987379402077 H 0.0 **** 0.06
24784 H 42.56882298413629 200.70514238042 49.92471847773078 H 0.0 **** 0.06
24785 H 43.02222338222245 202.34742429524982 50.44124675682767 H 0.0 **** 0.06
24786 C 32.237444425277516 190.6045786954465 79.4531656211513 C 0.0 **** -0.24
24787 H 33.08090513703755 191.26639176622007 79.2551559259617 H 0.0 **** 0.06
24788 H 32.58333780818563 189.730711252822 80.00597373780579 H 0.0 **** 0.06
24789 H 31.79667326672879 190.2861076547013 78.50800143639074 H 0.0 **** 0.06
24790 H 31.489054542848663 191.13537549304618 80.04183165094986 H 0.0 **** 0.06
24791 C 286.1221332853645 142.74055654364528 295.2992107883301 C 0.0 **** -0.24
24792 H 286.41667566879164 142.33468136512332 294.33183988214347 H 0.0 **** 0.06
24793 H 285.33167384254176 142.1239503446934 295.7271243482625 H 0.0 **** 0.06
24794 H 285.7566273736299 143.759991105694 295.16903798121785 H 0.0 **** 0.06
24795 H 286.9823335525525 142.74613093708365 295.9684997958615 H 0.0 **** 0.06
24796 C 225.53149757875758 248.39577007823192 261.88114623641934 C 0.0 **** -0.24
24797 H 226.56439102739137 248.0668045276012 261.7612748624156 H 0.0 **** 0.06
24798 H 224.94511568730658 247.59476618856607 262.33098220064744 H 0.0 **** 0.06
24799 H 225.1152009766321 248.6463323393912 260.90503658798906 H 0.0 **** 0.06
24800 H 225.5028920233978 249.27439259126433 262.5248841859355 H 0.0 **** 0.06
24801 C 297.92964207792994 135.9546445409876 36.790835934339526 C 0.0 **** -0.24
24802 H 298.3005247809004 135.46036364810263 37.68865928491621 H 0.0 **** 0.06
24803 H 298.77227412053537 136.2478614896885 36.16411477243324 H 0.0 **** 0.06
24804 H 297.3603658679075 136.8408616606182 37.07227894110423 H 0.0 **** 0.06
24805 H 297.28662195374 135.26996387922372 36.23775017107806 H 0.0 **** 0.06
24806 C 307.8215434085661 74.49750542889504 104.62235277695393 C 0.0 **** -0.24
24807 H 306.79486599556935 74.68822609246664 104.93582282461588 H 0.0 **** 0.06
24808 H 308.3352172962136 75.44646184682358 104.4658912565369 H 0.0 **** 0.06
24809 H 307.8183320483895 73.92917574503758 103.69223966145125 H 0.0 **** 0.06
24810 H 308.3381982867945 73.92834358463335 105.39528478086925 H 0.0 **** 0.06
24811 C 236.14648238153015 49.69509771337255 171.50495484878616 C 0.0 **** -0.24
24812 H 237.14369411187772 50.037383779020814 171.2289179624055 H 0.0 **** 0.06
24813 H 236.22015488883187 48.73377289812828 172.01330641091425 H 0.0 **** 0.06
24814 H 235.5392073197787 49.58516754689245 170.60586268837613 H 0.0 **** 0.06
24815 H 235.68333156043366 50.425032394933766 172.16952841990212 H 0.0 **** 0.06
24816 C 220.64390159270175 85.42540777008315 48.67244755593265 C 0.0 **** -0.24
24817 H 221.5136742198058 84.8955879012619 48.28405235319124 H 0.0 **** 0.06
24818 H 220.53511084090036 85.21430112282013 49.73629195528477 H 0.0 **** 0.06
24819 H 219.7506922942578 85.09287786023489 48.142674621105556 H 0.0 **** 0.06
24820 H 220.7762933741376 86.49750816687862 48.52500092869357 H 0.0 **** 0.06
24821 C 124.7500441136954 95.84853033783952 31.3116931581919 C 0.0 **** -0.24
24822 H 124.20056494876192 94.91148948691307 31.405375834569668 H 0.0 **** 0.06
24823 H 125.48561332716551 95.91955917148721 32.11242918413768 H 0.0 **** 0.06
24824 H 124.05439835668332 96.6851651363097 31.381080097530713 H 0.0 **** 0.06
24825 H 125.25720189450308 95.87629777807513 30.347075977021632 H 0.0 **** 0.06
24826 C 36.66864935515943 79.60132004829714 276.26224892969736 C 0.0 **** -0.24
24827 H 36.1322392526279 78.65215274420657 276.2775781251208 H 0.0 **** 0.06
24828 H 37.4289452247213 79.5760170856654 275.4813767875885 H 0.0 **** 0.06
24829 H 37.14545680160569 79.76307331419926 277.22873580891036 H 0.0 **** 0.06
24830 H 35.96795659579669 80.41116072566848 276.0626190779286 H 0.0 **** 0.06
24831 C 34.30104199751935 273.5644538707624 71.94763955673815 C 0.0 **** -0.24
24832 H 33.995802896138144 273.6237243675187 72.9919132014505 H 0.0 **** 0.06
24833 H 34.11519642752529 274.5218198642086 71.45996022323502 H 0.0 **** 0.06
24834 H 33.728023273515134 272.78403754698155 71.44593022056264 H 0.0 **** 0.06
24835 H 35.364001747175735 273.328176983225 71.8919246020775 H 0.0 **** 0.06
24836 C 180.32369243840418 28.9983012686059 90.67102147449035 C 0.0 **** -0.24
24837 H 179.59181637482789 29.782858004983154 90.8659407133994 H 0.0 **** 0.06
24838 H 180.31849934856928 28.75245302960792 89.60856816708218 H 0.0 **** 0.06
24839 H 180.06856028620598 28.112202956628295 91.25116689646916 H 0.0 **** 0.06
24840 H 181.31522838412099 29.34777697690967 90.95886439645327 H 0.0 **** 0.06
24841 C 250.93963646824741 246.52211581902208 41.65623120726582 C 0.0 **** -0.24
24842 H 250.90209097570624 247.20578072187635 40.80811447793687 H 0.0 **** 0.06
24843 H 250.25830424720152 245.68877180412701 41.48166170230169 H 0.0 **** 0.06
24844 H 250.6423235912137 247.05131799516045 42.561997437196936 H 0.0 **** 0.06
24845 H 251.95473612310911 246.14389579071658 41.77348583141642 H 0.0 **** 0.06
24846 C 31.78232770533151 76.52386901653327 78.10779651993937 C 0.0 **** -0.24
24847 H 31.34802800561951 75.53403741948773 78.2506129521513 H 0.0 **** 0.06
24848 H 31.062764243383015 77.28317239292213 78.41539066892307 H 0.0 **** 0.06
24849 H 32.031262440293574 76.66302317629709 77.05617160408747 H 0.0 **** 0.06
24850 H 32.68592380699002 76.6134672563224 78.7112628347079 H 0.0 **** 0.06
24851 C 14.330723361656467 63.54577758135494 248.84389897849235 C 0.0 **** -0.24
24852 H 15.23395431433191 63.32930605894333 248.27392593211948 H 0.0 **** 0.06
24853 H 14.581379533808061 63.63565115288705 249.9018562478543 H 0.0 **** 0.06
24854 H 13.611945840233588 62.73802002112666 248.7077595408438 H 0.0 **** 0.06
24855 H 13.895168365177852 64.48213455903448 248.49294625765978 H 0.0 **** 0.06
24856 C 73.3265748607163 84.49883836359578 123.33017981830966 C 0.0 **** -0.24
24857 H 73.4179986744561 84.96276040133796 122.34843475161423 H 0.0 **** 0.06
24858 H 72.95659674964207 83.47918510738981 123.2177752393581 H 0.0 **** 0.06
24859 H 72.62843944668694 85.07318163188202 123.93970677167047 H 0.0 **** 0.06
24860 H 74.30219513258396 84.48146353179118 123.81537312802382 H 0.0 **** 0.06
24861 C 252.99114929834877 140.43687892263523 140.72787581753838 C 0.0 **** -0.24
24862 H 252.88853154445405 140.40786302359095 141.81293711855176 H 0.0 **** 0.06
24863 H 253.65427783760467 139.6331988579962 140.4047995839666 H 0.0 **** 0.06
24864 H 253.41173128443734 141.3966078799449 140.42902892076785 H 0.0 **** 0.06
24865 H 252.01234051466744 140.30848164698313 140.2673686537979 H 0.0 **** 0.06
24866 C 183.12399095908006 114.5274484744968 1.8171668428012424 C 0.0 **** -0.24
24867 H 183.27851804089835 113.57558425343683 2.326037395165116 H 0.0 **** 0.06
24868 H 184.08438069207085 115.02127647137203 1.6731640128781748 H 0.0 **** 0.06
24869 H 182.47683007820342 115.1608571020881 2.4238773625569223 H 0.0 **** 0.06
24870 H 182.6563305338753 114.35046089885347 0.8493809841927487 H 0.0 **** 0.06
24871 C 184.13950232687318 241.3853082742529 128.56878658608647 C 0.0 **** -0.24
24872 H 185.01111941562658 242.01534715657942 128.74102188825017 H 0.0 **** 0.06
24873 H 183.40688155160683 241.55530145253357 129.3576823132958 H 0.0 **** 0.06
24874 H 184.44225195288914 240.33760075465344 128.57426134713478 H 0.0 **** 0.06
24875 H 183.6984736650549 241.63142487433703 127.60320816591951 H 0.0 **** 0.06
24876 C 13.380861781359826 17.646744810937292 8.27338038636266 C 0.0 **** -0.24
24877 H 13.92268384601934 18.270980151835957 7.5627479638129245 H 0.0 **** 0.06
24878 H 12.765562748612652 18.276357564096926 8.915410936472426 H 0.0 **** 0.06
24879 H 14.092612843817037 17.08979595142678 8.883086663858194 H 0.0 **** 0.06
24880 H 12.7440647810715 16.94839126065962 7.7303516126166585 H 0.0 **** 0.06
24881 C 80.6669947030588 119.65035181574481 224.48236490967486 C 0.0 **** -0.24
24882 H 81.5771779681013 120.12567682502262 224.11508856311502 H 0.0 **** 0.06
24883 H 79.94968096797552 119.56143261834075 223.66552848860766 H 0.0 **** 0.06
24884 H 80.23781238066834 120.25651414746577 225.2800322029713 H 0.0 **** 0.06
24885 H 80.90583415513723 118.65858635082816 224.86616997475522 H 0.0 **** 0.06
24886 C 238.63249582074243 107.7932093731664 234.00001876123534 C 0.0 **** -0.24
24887 H 238.1943510933873 107.23899578405462 234.83033427203804 H 0.0 **** 0.06
24888 H 239.60431529647724 107.36688128909933 233.75131688954053 H 0.0 **** 0.06
24889 H 238.7551167284302 108.83818281956107 234.28509762760015 H 0.0 **** 0.06
24890 H 237.97479165399415 107.72866799930657 233.13339024300177 H 0.0 **** 0.06
24891 C 88.21277989444442 156.03504278447366 20.8638535389195 C 0.0 **** -0.24
24892 H 88.60448678853373 155.48880048533454 20.00555964321086 H 0.0 **** 0.06
24893 H 88.7930229955131 156.94596464289208 21.010067971431113 H 0.0 **** 0.06
24894 H 88.28481240070354 155.41084984057085 21.754831562901643 H 0.0 **** 0.06
24895 H 87.16914028536712 156.29297456136322 20.684337762347695 H 0.0 **** 0.06
24896 C 135.1616445115656 296.86863320051964 17.261151027811252 C 0.0 **** -0.24
24897 H 135.98389873316546 296.8701625992054 16.547344334942835 H 0.0 **** 0.06
24898 H 134.6821200433434 297.84788985770615 17.264473264645375 H 0.0 **** 0.06
24899 H 135.54445897352767 296.64849295750395 18.25714184409601 H 0.0 **** 0.06
24900 H 134.43388684053585 296.10900696141323 16.975397462597968 H 0.0 **** 0.06
24901 C 97.46380819816895 60.80322604631601 103.72811560586422 C 0.0 **** -0.24
24902 H 97.05533732977133 61.75922205031287 103.40309786427497 H 0.0 **** 0.06
24903 H 97.41174384006081 60.73675169727903 104.81468811240771 H 0.0 **** 0.06
24904 H 98.50262713402248 60.7234708808119 103.40768046047955 H 0.0 **** 0.06
24905 H 96.88529156872846 59.991684757293996 103.28565589031103 H 0.0 **** 0.06
24906 C 42.99082999552803 204.19429209867639 310.92198055737845 C 0.0 **** -0.24
24907 H 42.60688843808799 203.82528451046676 311.8727074515807 H 0.0 **** 0.06
24908 H 43.70409152585495 203.47573899599678 310.5158096738455 H 0.0 **** 0.06
24909 H 43.48702773228629 205.15160592163005 311.07719780606095 H 0.0 **** 0.06
24910 H 42.164803301947956 204.3215214392123 310.2214101099842 H 0.0 **** 0.06
24911 C 282.98806448124327 68.5279159760899 235.80259281731168 C 0.0 **** -0.24
24912 H 283.95322372143255 69.0295387303513 235.87527434830324 H 0.0 **** 0.06
24913 H 283.0231549882731 67.59106003515262 236.35853251882958 H 0.0 **** 0.06
24914 H 282.763104536289 68.32169922708985 234.75614261499192 H 0.0 **** 0.06
24915 H 282.21245573869504 69.17045054743406 236.22127140560633 H 0.0 **** 0.06
24916 C 118.73210099954565 196.29263140523278 201.43985196893476 C 0.0 **** -0.24
24917 H 118.480983458798 196.11538785576835 202.48562587132238 H 0.0 **** 0.06
24918 H 119.26372675815637 195.4280089722218 201.04281110218153 H 0.0 **** 0.06
24919 H 119.36653773172151 197.1753617944093 201.363875392953 H 0.0 **** 0.06
24920 H 117.81756010993902 196.451872974727 200.8692922174394 H 0.0 **** 0.06
24921 C 110.08816434225761 75.50353379052606 230.30843014162735 C 0.0 **** -0.24
24922 H 110.37062356827903 76.34899340667837 229.68115095907729 H 0.0 **** 0.06
24923 H 109.3942236200042 74.86266687912556 229.76247663093307 H 0.0 **** 0.06
24924 H 109.60784577161337 75.86939645430164 231.21600764938773 H 0.0 **** 0.06
24925 H 110.97835032223458 74.93395947409272 230.5728131269683 H 0.0 **** 0.06
24926 C 133.99113715675267 34.621276330656144 32.10705721709857 C 0.0 **** -0.24
24927 H 134.246593092721 35.01373877936709 33.091202958253206 H 0.0 **** 0.06
24928 H 132.93123749767824 34.787902527971085 31.913579117102728 H 0.0 **** 0.06
24929 H 134.2019543354229 33.5521230814183 32.07669608491395 H 0.0 **** 0.06
24930 H 134.58402432905217 35.13102344814146 31.34828450901304 H 0.0 **** 0.06
24931 C 304.53370075742083 47.40051201704787 46.66463311234733 C 0.0 **** -0.24
24932 H 305.2788019679576 48.183991621792245 46.79365727273762 H 0.0 **** 0.06
24933 H 304.8164892876718 46.52859852879007 47.25634070574213 H 0.0 **** 0.06
24934 H 304.47615284980765 47.12289602850345 45.611944196698914 H 0.0 **** 0.06
24935 H 303.5615530043591 47.76468184949866 46.99807491051757 H 0.0 **** 0.06
24936 C 67.45696110677517 33.88002938073612 269.66777515654644 C 0.0 **** -0.24
24937 H 67.30848787972775 32.82334893771673 269.8867465821138 H 0.0 **** 0.06
24938 H 68.5174897743654 34.07216370326006 269.5045890725593 H 0.0 **** 0.06
24939 H 67.10432754017586 34.47802598294908 270.50852362343124 H 0.0 **** 0.06
24940 H 66.89591824424332 34.14718310058032 268.7713270800926 H 0.0 **** 0.06
24941 C 288.36084605358644 16.04023261142322 294.4112699570814 C 0.0 **** -0.24
24942 H 288.7014950021657 17.02295933130813 294.08473383469277 H 0.0 **** 0.06
24943 H 288.4443068585258 15.333959811778925 293.5845757080076 H 0.0 **** 0.06
24944 H 287.3214479570784 16.104318614573913 294.7314119972938 H 0.0 **** 0.06
24945 H 288.9767917722472 15.700652940839177 295.2435546834665 H 0.0 **** 0.06
24946 C 110.99274537905686 187.33880889100413 57.85859185045649 C 0.0 **** -0.24
24947 H 110.9230132553109 188.4184257558751 57.729192461783896 H 0.0 **** 0.06
24948 H 111.24694374175485 187.11279176938962 58.89527445061765 H 0.0 **** 0.06
24949 H 111.76570444426383 186.94321121612967 57.20054997637408 H 0.0 **** 0.06
24950 H 110.03562210631452 186.88034347693718 57.61127251872432 H 0.0 **** 0.06
24951 C 166.5363197874001 30.650110918041122 144.99625387153117 C 0.0 **** -0.24
24952 H 166.71497409438877 29.827348747075348 144.30263696939775 H 0.0 **** 0.06
24953 H 166.68786077950887 31.59760092571952 144.48010625840632 H 0.0 **** 0.06
24954 H 167.23073655356274 30.57556350781212 145.8333544570489 H 0.0 **** 0.06
24955 H 165.51229161095296 30.596068086796976 145.36632145722953 H 0.0 **** 0.06
24956 C 11.02690178013684 25.71476261259781 294.48038762466734 C 0.0 **** -0.24
24957 H 10.9113278840708 25.779581063783098 293.3990645521802 H 0.0 **** 0.06
24958 H 12.00774562968806 25.301060068666374 294.71658648558656 H 0.0 **** 0.06
24959 H 10.251942287850454 25.067773489902834 294.8905268779444 H 0.0 **** 0.06
24960 H 10.937789545992075 26.71049176286553 294.91610981165985 H 0.0 **** 0.06
24961 C 176.68969366438256 114.79109390101806 122.401153880527 C 0.0 **** -0.24
24962 H 176.20476298185008 113.94316868360576 121.9174634746822 H 0.0 **** 0.06
24963 H 177.64414609577807 114.47164434582902 122.82094894127147 H 0.0 **** 0.06
24964 H 176.0503556270076 115.16919146087031 123.19912910622008 H 0.0 **** 0.06
24965 H 176.86076943982192 115.57937239767591 121.66771919165558 H 0.0 **** 0.06
24966 C 4.625093677498441 258.78844354295614 142.26463845451653 C 0.0 **** -0.24
24967 H 4.933553510995594 257.9554530313772 141.63266164316303 H 0.0 **** 0.06
24968 H 4.972764741630641 258.61919991434115 143.28274491559003 H 0.0 **** 0.06
24969 H 3.5378058956001155 258.86403572073993 142.25876893858452 H 0.0 **** 0.06
24970 H 5.0549901956499355 259.7132844344806 141.88135050237923 H 0.0 **** 0.06
24971 C 306.362690231097 244.16373864210823 276.67064702848563 C 0.0 **** -0.24
24972 H 306.0282635078101 244.24231190696628 277.7048971708003 H 0.0 **** 0.06
24973 H 305.4985352738232 244.0313378896496 276.01779129299007 H 0.0 **** 0.06
24974 H 307.02968610005416 243.30726190571767 276.5679461778379 H 0.0 **** 0.06
24975 H 306.89378261894507 245.0734008585944 276.39042233781026 H 0.0 **** 0.06
24976 C 110.02118102716352 65.54755221568894 287.3857455310643 C 0.0 **** -0.24
24977 H 110.42492374369053 64.82037205289265 286.6809539437457 H 0.0 **** 0.06
24978 H 109.16450478174798 66.05199688915849 286.93636847137134 H 0.0 **** 0.06
24979 H 110.78927311697612 66.28298632765416 287.628186380012 H 0.0 **** 0.06
24980 H 109.70704198498765 65.03771235413512 288.29528514960543 H 0.0 **** 0.06
24981 C 42.44860036138243 160.11434949416935 265.0688819352415 C 0.0 **** -0.24
24982 H 42.873283996805526 160.4098147447304 264.10886659641477 H 0.0 **** 0.06
24983 H 41.37737121057904 159.94346598112327 264.9544735040651 H 0.0 **** 0.06
24984 H 42.614418131016066 160.90725494807407 265.79780974772166 H 0.0 **** 0.06
24985 H 42.92845388246167 159.1986506915345 265.41192077212963 H 0.0 **** 0.06
24986 C 289.7700878879317 80.02036503221188 115.76474025429945 C 0.0 **** -0.24
24987 H 290.69996655201686 80.38077645217288 115.3243590215009 H 0.0 **** 0.06
24988 H 289.15608787986446 80.86996418197634 116.06205426462759 H 0.0 **** 0.06
24989 H 289.9960171670323 79.41015175642451 116.63954084382928 H 0.0 **** 0.06
24990 H 289.23017844799153 79.41947133923145 115.03256683302408 H 0.0 **** 0.06
24991 C 167.92527943276775 184.4402306020204 267.0792789034552 C 0.0 **** -0.24
24992 H 168.81195834436113 185.03875284842667 266.8715242983852 H 0.0 **** 0.06
24993 H 167.0338225661331 185.0067739711156 266.8086691856314 H 0.0 **** 0.06
24994 H 167.89314123081817 184.19610010515504 268.14110364719863 H 0.0 **** 0.06
24995 H 167.96280903836907 183.52055733307668 266.4956412111709 H 0.0 **** 0.06
24996 C 98.2032579885921 33.266031128910356 254.77078989575995 C 0.0 **** -0.24
24997 H 98.65002964152535 32.74361557447628 253.92561333260534 H 0.0 **** 0.06
24998 H 98.88357050419464 34.04390626398788 255.11820968160058 H 0.0 **** 0.06
24999 H 98.01801767875091 32.557420479234025 255.57885878554725 H 0.0 **** 0.06
25000 H 97.2608847237021 33.71829031148965 254.46186496789701 H 0.0 **** 0.06
25001 C 215.9049312582075 73.83352151332753 134.49275024809444 C 0.0 **** -0.24
25002 H 216.17727795395234 72.83714336292496 134.84227737608532 H 0.0 **** 0.06
25003 H 215.5110473861406 73.76656071068012 133.47819068846562 H 0.0 **** 0.06
25004 H 216.78538965441976 74.4747333236636 134.5001508673128 H 0.0 **** 0.06
25005 H 215.1441294768885 74.2528595887268 135.1512094940531 H 0.0 **** 0.06
25006 C 286.25676452363734 11.402273575438642 213.68757379683998 C 0.0 **** -0.24
25007 H 285.7968432437987 10.562360189474177 213.16699597380645 H 0.0 **** 0.06
25008 H 286.5801971445241 12.146911696955087 212.96072322448168 H 0.0 **** 0.06
25009 H 287.1178185700852 11.0493529258449 214.2557395272175 H 0.0 **** 0.06
25010 H 285.53138876080493 11.84818240406068 214.36717196016258 H 0.0 **** 0.06
25011 C 63.136049607279915 154.40994299615022 191.076332394242 C 0.0 **** -0.24
25012 H 63.15126856274233 153.36032199769085 190.78367646897908 H 0.0 **** 0.06
25013 H 64.10830957292833 154.6877780741617 191.4828303362459 H 0.0 **** 0.06
25014 H 62.36827861084913 154.5639744493389 191.83474676627486 H 0.0 **** 0.06
25015 H 62.915411980765754 155.02628291102894 190.2055370730834 H 0.0 **** 0.06
25016 C 158.4255853134528 136.83992118276723 309.0167253161641 C 0.0 **** -0.24
25017 H 158.02894429539617 136.25160107460866 309.8437094149667 H 0.0 **** 0.06
25018 H 157.69579068205582 136.86444611924298 308.206077622315 H 0.0 **** 0.06
25019 H 159.35081923979135 136.387592707773 308.6596882279695 H 0.0 **** 0.06
25020 H 158.62496221496895 137.85675772672693 309.3563481190265 H 0.0 **** 0.06
25021 C 293.11046287848956 86.77469955657719 301.3038578108711 C 0.0 **** -0.24
25022 H 292.1008492684929 86.4377595183818 301.535253816479 H 0.0 **** 0.06
25023 H 293.4712564539626 86.2580397528721 300.4139718647272 H 0.0 **** 0.06
25024 H 293.76851357626265 86.55314264817156 302.1448912058867 H 0.0 **** 0.06
25025 H 293.10246575278876 87.85000211856112 301.1234255529925 H 0.0 **** 0.06
25026 C 177.972094273871 289.8382780331707 145.04254034607632 C 0.0 **** -0.24
25027 H 178.64505837067333 290.6422693120455 144.74673856802033 H 0.0 **** 0.06
25028 H 178.28285856031738 289.4428567783352 146.00951135847433 H 0.0 **** 0.06
25029 H 178.00516893128764 289.0435877791871 144.29697960479842 H 0.0 **** 0.06
25030 H 176.95529123320568 290.2243982631152 145.11693185301223 H 0.0 **** 0.06
25031 C 1.9040142710282737 98.9784927125034 187.2601270426352 C 0.0 **** -0.24
25032 H 0.985288869370649 98.92508298023586 187.84422411220578 H 0.0 **** 0.06
25033 H 2.5163511573974944 99.80429292957717 187.62156429372908 H 0.0 **** 0.06
25034 H 1.6590498266216116 99.13939454889834 186.21034927130086 H 0.0 **** 0.06
25035 H 2.454895409335194 98.04334799628725 187.36495874095493 H 0.0 **** 0.06
25036 C 15.828429803346381 290.91005396020023 272.11083006049023 C 0.0 **** -0.24
25037 H 15.48357165329054 291.398539049172 271.2000427529798 H 0.0 **** 0.06
25038 H 16.627303765308625 290.20911002292195 271.8668191099988 H 0.0 **** 0.06
25039 H 15.00027669611596 290.3699301217963 272.56933962283586 H 0.0 **** 0.06
25040 H 16.202665378302612 291.660637714888 272.8061214425561 H 0.0 **** 0.06
25041 C 231.6628469059815 35.17361970179607 24.69938639632224 C 0.0 **** -0.24
25042 H 231.80859339150726 36.0419323929454 24.05698357773224 H 0.0 **** 0.06
25043 H 232.61969340443846 34.67411058888797 24.85774606176591 H 0.0 **** 0.06
25044 H 230.96587748079818 34.48242446883418 24.224578936302322 H 0.0 **** 0.06
25045 H 231.2580668926871 35.495715253139394 25.658685070057658 H 0.0 **** 0.06
25046 C 251.17311099530804 152.1165752697013 267.0554226075345 C 0.0 **** -0.24
25047 H 250.65327012554832 151.22801106970144 266.69757839375455 H 0.0 **** 0.06
25048 H 251.91775601078626 151.82739392535456 267.7968208133287 H 0.0 **** 0.06
25049 H 250.45538332419707 152.7998262372064 267.5079648148682 H 0.0 **** 0.06
25050 H 251.6664689151933 152.60953894228015 266.2181149414824 H 0.0 **** 0.06
25051 C 32.98501489797334 129.67942274579383 263.5585344686601 C 0.0 **** -0.24
25052 H 32.049157216353734 129.13892509686278 263.6994743138926 H 0.0 **** 0.06
25053 H 33.57527468693843 129.18974812836223 262.78346898486444 H 0.0 **** 0.06
25054 H 33.5454524715021 129.68495267477095 264.4941104954757 H 0.0 **** 0.06
25055 H 32.770133416959226 130.7052264361953 263.2578900090189 H 0.0 **** 0.06
25056 C 163.08904358333103 282.4019360813297 163.78212619407617 C 0.0 **** -0.24
25057 H 164.12927817282764 282.68397185035104 163.62278012763807 H 0.0 **** 0.06
25058 H 162.7976457663121 281.65651957745115 163.04085640065068 H 0.0 **** 0.06
25059 H 162.45404364407165 283.2819508564313 163.68261026461528 H 0.0 **** 0.06
25060 H 162.97607652623924 281.983876540684 164.78179814472827 H 0.0 **** 0.06
25061 C 232.96422074535405 217.45018913625466 38.10734667172255 C 0.0 **** -0.24
25062 H 233.6212858987874 218.31296410037123 38.00645025334529 H 0.0 **** 0.06
25063 H 232.4808481246105 217.24815072054764 37.150442419884826 H 0.0 **** 0.06
25064 H 232.20524610363825 217.65676557252385 38.86199163434762 H 0.0 **** 0.06
25065 H 233.5492502884445 216.58163456660682 38.40932140906651 H 0.0 **** 0.06
25066 C 92.10286784241941 102.43566166965434 279.7235028915134 C 0.0 **** -0.24
25067 H 92.5500120104596 101.4594541062045 279.9102439812381 H 0.0 **** 0.06
25068 H 92.71214314661009 102.98344342183293 279.005519535386 H 0.0 **** 0.06
25069 H 92.0499143075221 102.99564548049261 280.6575850122355 H 0.0 **** 0.06
25070 H 91.09778945161241 102.30352303903817 279.32291312550444 H 0.0 **** 0.06
25071 C 104.22917485743591 14.439752800146891 10.915012308616781 C 0.0 **** -0.24
25072 H 105.01791374585366 15.184776474331187 11.014274768187647 H 0.0 **** 0.06
25073 H 103.3369778270237 14.908499481133063 10.499642162012663 H 0.0 **** 0.06
25074 H 103.99854538602872 14.022054377720593 11.89548231260926 H 0.0 **** 0.06
25075 H 104.56420574070762 13.642775556585448 10.250110859686686 H 0.0 **** 0.06
25076 C 174.6277764864629 34.477329133338486 45.84038925202262 C 0.0 **** -0.24
25077 H 175.5186108483262 34.047225355930124 46.296845410960856 H 0.0 **** 0.06
25078 H 173.81524191809586 34.485947609826184 46.56704780181727 H 0.0 **** 0.06
25079 H 174.33685652787966 33.877328832898 44.97795225803628 H 0.0 **** 0.06
25080 H 174.83993917422328 35.49600998235326 45.51875022603747 H 0.0 **** 0.06
25081 C 162.64458814368516 33.28179206627425 21.323800626222237 C 0.0 **** -0.24
25082 H 162.66425940310017 34.36842395521333 21.409191088149328 H 0.0 **** 0.06
25083 H 163.30511422214335 32.96905517428357 20.514198691600086 H 0.0 **** 0.06
25084 H 161.62677766775914 32.953900433350185 21.11011565566355 H 0.0 **** 0.06
25085 H 162.97992383805553 32.83750375962029 22.260328905187464 H 0.0 **** 0.06
25086 C 207.7701913743577 45.795123207414406 221.613743610112 C 0.0 **** -0.24
25087 H 206.81768647095754 45.31946164869686 221.8452859088954 H 0.0 **** 0.06
25088 H 208.39980519683326 45.799219014032104 222.50451687923544 H 0.0 **** 0.06
25089 H 207.59434178771204 46.81987766611536 221.2876430597198 H 0.0 **** 0.06
25090 H 208.26936098729647 45.24068020275669 220.8193293604255 H 0.0 **** 0.06
25091 C 275.6382929547992 23.52592845862037 289.58430421343826 C 0.0 **** -0.24
25092 H 275.35509830293074 24.169963078209435 290.4162534567449 H 0.0 **** 0.06
25093 H 276.5000357446005 22.92223264827757 289.870622370226 H 0.0 **** 0.06
25094 H 275.89450126906297 24.139555844480725 288.72057214765067 H 0.0 **** 0.06
25095 H 274.80432052763905 22.871720759104534 289.33184902404895 H 0.0 **** 0.06
25096 C 107.22212545544076 255.59396769312525 233.58865628982505 C 0.0 **** -0.24
25097 H 106.16237980236986 255.84968277094245 233.59538692792967 H 0.0 **** 0.06
25098 H 107.71817253378907 256.12593087618416 232.77639289590564 H 0.0 **** 0.06
25099 H 107.33472541594085 254.51993792712196 233.44322363436356 H 0.0 **** 0.06
25100 H 107.67106050240992 255.8807442157609 234.5392497342045 H 0.0 **** 0.06
25101 C 150.0333362014872 270.67857876061913 135.3833344185276 C 0.0 **** -0.24
25102 H 149.5917589826933 271.14911358236486 134.50547401590663 H 0.0 **** 0.06
25103 H 150.1779089659608 271.4264490360134 136.1629273355861 H 0.0 **** 0.06
25104 H 150.9957231183467 270.2417677236714 135.11638518949016 H 0.0 **** 0.06
25105 H 149.36822891403 269.89589844581855 135.74941388373207 H 0.0 **** 0.06
25106 C 105.55394827331102 249.09458825281476 111.69961423596109 C 0.0 **** -0.24
25107 H 104.54575828128264 248.7006997303233 111.57268071010753 H 0.0 **** 0.06
25108 H 106.18450207495698 248.7512356153203 110.87920383770438 H 0.0 **** 0.06
25109 H 105.96433405415982 248.74254475006381 112.64610049226474 H 0.0 **** 0.06
25110 H 105.51966873687937 250.18357936914015 111.7012289436322 H 0.0 **** 0.06
25111 C 15.459820146889982 265.7408366565893 108.23900543080666 C 0.0 **** -0.24
25112 H 14.648636521431499 266.45776729315514 108.35967825783771 H 0.0 **** 0.06
25113 H 15.048152376857217 264.76919872973065 107.96436249880958 H 0.0 **** 0.06
25114 H 16.00776758549661 265.650734852894 109.17751788370504 H 0.0 **** 0.06
25115 H 16.13568458436454 266.0845907176863 107.45544511960665 H 0.0 **** 0.06
25116 C 223.3467240131316 42.34442464241505 225.8354084487106 C 0.0 **** -0.24
25117 H 222.6058151229682 42.981994467471736 226.3180730174991 H 0.0 **** 0.06
25118 H 222.9749045689191 41.32036240018215 225.79521918425374 H 0.0 **** 0.06
25119 H 224.27504984261088 42.3718492383548 226.40639916484508 H 0.0 **** 0.06
25120 H 223.53174198695248 42.7050745927186 224.82370824041925 H 0.0 **** 0.06
25121 C 88.09113868825014 17.12830231373988 196.30675729346387 C 0.0 **** -0.24
25122 H 87.14801316352094 17.60445891438178 196.03770806294312 H 0.0 **** 0.06
25123 H 88.23303120772707 16.234965958212342 195.69829363790058 H 0.0 **** 0.06
25124 H 88.07006787269478 16.850195694329727 197.36060124782233 H 0.0 **** 0.06
25125 H 88.9113602106587 17.82284372123189 196.13009595204028 H 0.0 **** 0.06
25126 C 218.6279826422798 27.704127296847616 122.52985140196259 C 0.0 **** -0.24
25127 H 218.04909033405272 28.486890781171383 123.01979463543125 H 0.0 **** 0.06
25128 H 218.64808844297028 26.816573683669645 123.16243870142804 H 0.0 **** 0.06
25129 H 219.646923401116 28.056450015768235 122.36455231294804 H 0.0 **** 0.06
25130 H 218.16945068024887 27.457916867727192 121.57183249980477 H 0.0 **** 0.06
25131 C 276.6586814937176 116.0028557108792 95.37749582183358 C 0.0 **** -0.24
25132 H 275.75126281623625 115.65204948015375 95.86845985265222 H 0.0 **** 0.06
25133 H 276.5314212009828 117.04343697886756 95.07949281642814 H 0.0 **** 0.06
25134 H 276.85271558156666 115.39294963350935 94.49516952186019 H 0.0 **** 0.06
25135 H 277.4993263760847 115.9229867509861 96.06686109639372 H 0.0 **** 0.06
25136 C 126.1388878369072 129.04755239447113 29.99141374388526 C 0.0 **** -0.24
25137 H 127.22847804212148 129.04592842261007 29.971069329405452 H 0.0 **** 0.06
25138 H 125.76558749819029 129.85770918602418 29.363709046243997 H 0.0 **** 0.06
25139 H 125.79421977920393 129.19283729407607 31.01562152627247 H 0.0 **** 0.06
25140 H 125.76657775011174 128.09551095483687 29.614084122523934 H 0.0 **** 0.06
25141 C 26.847253630781324 174.43758373445513 166.43945341824673 C 0.0 **** -0.24
25142 H 25.991034741897863 174.26657238888924 167.09259328669214 H 0.0 **** 0.06
25143 H 26.80607683775642 173.74618779331053 165.5983247299601 H 0.0 **** 0.06
25144 H 27.767704071597677 174.2751149736098 166.99953754957477 H 0.0 **** 0.06
25145 H 26.82232840684702 175.46285525909053 166.07006827428205 H 0.0 **** 0.06
25146 C 204.926626058872 23.891460999438095 123.48446251053062 C 0.0 **** -0.24
25147 H 204.65696949519435 23.6897508039128 124.52107897000624 H 0.0 **** 0.06
25148 H 204.7410295146351 23.002466955194677 122.88183338645894 H 0.0 **** 0.06
25149 H 205.98266860873247 24.155611684298037 123.42844556059688 H 0.0 **** 0.06
25150 H 204.32448247113047 24.718582738583592 123.10784987093123 H 0.0 **** 0.06
25151 C 211.44497613069294 297.2611967130345 183.78034532898283 C 0.0 **** -0.24
25152 H 210.76331718919442 296.4749766341388 184.10372346936822 H 0.0 **** 0.06
25153 H 212.16360446156705 296.84960886072685 183.07084471807246 H 0.0 **** 0.06
25154 H 211.97503730966446 297.6615073846418 184.644230078252 H 0.0 **** 0.06
25155 H 210.87753779964874 298.0592838657037 183.3013641307371 H 0.0 **** 0.06
25156 C 225.78370415532953 103.36319219486941 51.43101515772139 C 0.0 **** -0.24
25157 H 225.94314300288815 104.19093437029102 50.73977822573852 H 0.0 **** 0.06
25158 H 225.9918665272701 102.42099084503212 50.92297539740409 H 0.0 **** 0.06
25159 H 224.7490658697257 103.37025209265187 51.773945363243655 H 0.0 **** 0.06
25160 H 226.45061805170457 103.46995085517347 52.28660372336935 H 0.0 **** 0.06
25161 C 5.855767653798253 42.44585981566925 112.41000146710289 C 0.0 **** -0.24
25162 H 5.111006148593333 43.10737085774349 112.85362945978105 H 0.0 **** 0.06
25163 H 5.972911828495427 42.6878399297174 111.35383991927327 H 0.0 **** 0.06
25164 H 5.529052547041871 41.411908356483934 112.51257320286862 H 0.0 **** 0.06
25165 H 6.808531504325927 42.578122642282295 112.92147671984523 H 0.0 **** 0.06
25166 C 84.56567004146206 250.85929724200633 162.44414443567183 C 0.0 **** -0.24
25167 H 84.73429918059213 251.82573229478416 161.96857440468028 H 0.0 **** 0.06
25168 H 83.92532847010762 250.24855669511786 161.80694587113345 H 0.0 **** 0.06
25169 H 84.08233907425293 251.00854502560787 163.40860678124164 H 0.0 **** 0.06
25170 H 85.52114467100566 250.35511786629854 162.58941225706099 H 0.0 **** 0.06
25171 C 139.99386179442027 171.92007187504583 195.15669450826857 C 0.0 **** -0.24
25172 H 139.02616254538228 172.2400809341164 195.54266952587096 H 0.0 **** 0.06
25173 H 139.9734468305652 170.84604367784124 194.97075093424786 H 0.0 **** 0.06
25174 H 140.7688928655302 172.14796481706747 195.8880459921288 H 0.0 **** 0.06
25175 H 140.20610502437572 172.4472479662029 194.22575007543577 H 0.0 **** 0.06
25176 C 303.21213180086846 141.6603874637018 62.49477147655321 C 0.0 **** -0.24
25177 H 303.9403127962255 142.09068445038707 63.18241840042279 H 0.0 **** 0.06
25178 H 302.49089294525356 141.06574383645093 63.055757056950625 H 0.0 **** 0.06
25179 H 303.72589664239223 141.02298792920524 61.77427312360689 H 0.0 **** 0.06
25180 H 302.6937820119323 142.46042348385816 61.967357779981796 H 0.0 **** 0.06
25181 C 85.88096563361134 256.17806324012986 4.434143958548603 C 0.0 **** -0.24
25182 H 86.6360969258877 256.6197664934673 3.784440707539531 H 0.0 **** 0.06
25183 H 85.14562772394584 255.6493240300789 3.8288280493207196 H 0.0 **** 0.06
25184 H 85.38609450182875 256.9648329281109 5.003597531106763 H 0.0 **** 0.06
25185 H 86.35778993972332 255.47855823185677 5.121086952180946 H 0.0 **** 0.06
25186 C 192.15104965592303 127.30478469065145 281.5517738990069 C 0.0 **** -0.24
25187 H 191.55828757654223 126.4617325309778 281.9084846065281 H 0.0 **** 0.06
25188 H 191.72275401109698 127.6826549840263 280.62298531412245 H 0.0 **** 0.06
25189 H 193.1749668688994 126.9788613046992 281.3741680749796 H 0.0 **** 0.06
25190 H 192.14581503633025 128.0944923877143 282.302643194592 H 0.0 **** 0.06
25191 C 39.01792316548622 67.05635595811486 45.38556773226344 C 0.0 **** -0.24
25192 H 40.038463607490456 66.944625962684 45.01852554529398 H 0.0 **** 0.06
25193 H 38.42212712982948 67.59145049996971 44.64582367720402 H 0.0 **** 0.06
25194 H 39.027757178946985 67.6182575472339 46.32009662485734 H 0.0 **** 0.06
25195 H 38.58489970157686 66.07167250777312 45.558317629785336 H 0.0 **** 0.06
25196 C 269.9082640563066 174.26939502770495 210.47769481962246 C 0.0 **** -0.24
25197 H 270.7641412982624 173.66352706028908 210.1791424698532 H 0.0 **** 0.06
25198 H 269.48737992426834 174.76024815408067 209.60059385482862 H 0.0 **** 0.06
25199 H 270.2301616535911 175.02253191499045 211.19748514988964 H 0.0 **** 0.06
25200 H 269.15289715241016 173.62959636131183 210.9344889297878 H 0.0 **** 0.06
25201 C 55.3160502277336 172.76205814321474 212.09396975446106 C 0.0 **** -0.24
25202 H 54.94527571307023 173.64834003284506 211.5786475026227 H 0.0 **** 0.06
25203 H 56.18408417106275 173.02910349381625 212.69707853888204 H 0.0 **** 0.06
25204 H 55.601454883833014 172.0075039796493 211.3596104722156 H 0.0 **** 0.06
25205 H 54.53372256859802 172.36252280756275 212.73846746158245 H 0.0 **** 0.06
25206 C 190.4941531072169 121.48239460320002 268.597380576206 C 0.0 **** -0.24
25207 H 191.01285470857346 122.1850455272245 269.24808916617053 H 0.0 **** 0.06
25208 H 191.1890358822389 120.70723361958338 268.27240406321 H 0.0 **** 0.06
25209 H 190.1069185116791 122.0119345817136 267.7263219480778 H 0.0 **** 0.06
25210 H 189.66809961017663 121.02526016629363 269.14132825068293 H 0.0 **** 0.06
25211 C 257.35153963564926 7.30316545947062 86.88021915289525 C 0.0 **** -0.24
25212 H 256.35353855053427 7.650647492655949 86.61176538800643 H 0.0 **** 0.06
25213 H 257.46606062372376 6.261338349827071 86.5776624215948 H 0.0 **** 0.06
25214 H 257.48756447984147 7.386116122592298 87.95838137534022 H 0.0 **** 0.06
25215 H 258.0973968777036 7.913549024385432 86.37053274875063 H 0.0 **** 0.06
25216 C 155.00542505661616 250.13361304451158 245.69350494804218 C 0.0 **** -0.24
25217 H 155.18601038373174 250.7188336237715 246.59495276205092 H 0.0 **** 0.06
25218 H 154.3511053775946 250.69255751197056 245.02282380168586 H 0.0 **** 0.06
25219 H 154.53075547682982 249.18964797752508 245.96209216694513 H 0.0 **** 0.06
25220 H 155.95362491506887 249.9350935485818 245.19451758817127 H 0.0 **** 0.06
25221 C 210.00171753588677 51.180462777544875 200.26239623336267 C 0.0 **** -0.24
25222 H 210.18647828556908 52.005844173445865 200.9503906878698 H 0.0 **** 0.06
25223 H 210.41124608738093 51.42671437182105 199.28221672312753 H 0.0 **** 0.06
25224 H 208.92811746919324 51.013785643513984 200.17646033695547 H 0.0 **** 0.06
25225 H 210.4801924118448 50.27757741190601 200.64063710304544 H 0.0 **** 0.06
25226 C 21.12861195918839 170.06069775390586 192.9084321450975 C 0.0 **** -0.24
25227 H 21.616159715112758 170.39038564332066 191.99105194546843 H 0.0 **** 0.06
25228 H 20.97373807104711 168.98276326404863 192.87099338426128 H 0.0 **** 0.06
25229 H 20.166602771816372 170.56329164477216 193.01024106258615 H 0.0 **** 0.06
25230 H 21.758410880868865 170.30819706039028 193.76298334996585 H 0.0 **** 0.06
25231 C 13.821530229756931 137.8779451025025 224.30411746231186 C 0.0 **** -0.24
25232 H 14.635010093195248 137.31765812971634 224.76665867848655 H 0.0 **** 0.06
25233 H 13.837766524279075 138.90599026256808 224.6647764113937 H 0.0 **** 0.06
25234 H 12.869622038959534 137.41567730349422 224.56393590803776 H 0.0 **** 0.06
25235 H 13.945268834207383 137.87009117578748 223.2209510734841 H 0.0 **** 0.06
25236 C 98.21971185983185 211.3873042956663 136.29460739679857 C 0.0 **** -0.24
25237 H 98.81890672672375 211.47115774184635 137.2009056137355 H 0.0 **** 0.06
25238 H 98.87967029860138 211.27891844174707 135.43245965602802 H 0.0 **** 0.06
25239 H 97.61284768314965 212.28458241938858 136.17639493393594 H 0.0 **** 0.06
25240 H 97.57052947880041 210.5158530398282 136.36737611296653 H 0.0 **** 0.06
25241 C 116.13418964578386 203.485463413381 298.94664836135155 C 0.0 **** -0.24
25242 H 116.61229801607726 204.33085535767123 298.45215144996104 H 0.0 **** 0.06
25243 H 115.1058044533637 203.74730369719265 299.1993595013267 H 0.0 **** 0.06
25244 H 116.68093562683902 203.24116399714808 299.85749905059197 H 0.0 **** 0.06
25245 H 116.13703641484801 202.6248673481349 298.27785118916574 H 0.0 **** 0.06
25246 C 3.2379427186375267 295.58400516546925 142.5575498438212 C 0.0 **** -0.24
25247 H 2.9040952614912356 295.51902855390296 143.59262484619398 H 0.0 **** 0.06
25248 H 3.231487337892105 294.58932416735183 142.11137455114505 H 0.0 **** 0.06
25249 H 4.249260031107198 295.98935693399005 142.52613986127795 H 0.0 **** 0.06
25250 H 2.567177745035977 296.23693528086824 142.00027257111327 H 0.0 **** 0.06
25251 C 129.21273629355557 187.737640069833 111.53733364861043 C 0.0 **** -0.24
25252 H 129.59904018205404 187.0469661753486 112.28686898932403 H 0.0 **** 0.06
25253 H 129.4992966697377 187.3930132448985 110.54327788736657 H 0.0 **** 0.06
25254 H 129.6262396530434 188.73089243472623 111.71035115761345 H 0.0 **** 0.06
25255 H 128.12521384111727 187.77922853322195 111.60816211161111 H 0.0 **** 0.06
25256 C 219.9199994929592 33.66439296002372 193.5722869156213 C 0.0 **** -0.24
25257 H 219.38496978159662 32.926663917721754 194.17035498735106 H 0.0 **** 0.06
25258 H 220.55038566317018 34.27122783426523 194.22331692102375 H 0.0 **** 0.06
25259 H 219.2026222703219 34.30462743804404 193.05919425133033 H 0.0 **** 0.06
25260 H 220.54240082370197 33.153219857147064 192.83750463868114 H 0.0 **** 0.06
25261 C 61.3472338224727 43.10180637132092 202.60881840882314 C 0.0 **** -0.24
25262 H 61.440548692494644 43.077764997431274 203.69489239370972 H 0.0 **** 0.06
25263 H 60.76399853686152 42.24359167131729 202.27512022180002 H 0.0 **** 0.06
25264 H 62.33932454659026 43.06519774254798 202.15881157186817 H 0.0 **** 0.06
25265 H 60.8453537696285 44.02198978449897 202.30849316541992 H 0.0 **** 0.06
25266 C 183.9914553499682 306.57283875864243 88.64066958552814 C 0.0 **** -0.24
25267 H 183.559259875002 307.337709810571 89.28531808826781 H 0.0 **** 0.06
25268 H 184.7884734189991 306.05658808557155 89.17507092037707 H 0.0 **** 0.06
25269 H 184.3973219251602 307.0405098327894 87.74357737175544 H 0.0 **** 0.06
25270 H 183.21895785494308 305.8561326925644 88.35945900383084 H 0.0 **** 0.06
25271 C 158.3197655946555 289.20613179856497 313.14310434679953 C 0.0 **** -0.24
25272 H 158.9026935225661 289.3656905707102 312.23596412647686 H 0.0 **** 0.06
25273 H 157.38404664827902 288.7075199010606 312.88984049227474 H 0.0 **** 0.06
25274 H 158.10459253918742 290.1680310518729 313.60962523328885 H 0.0 **** 0.06
25275 H 158.88667065093455 288.5849749908806 313.83556461363185 H 0.0 **** 0.06
25276 C 3.130626669418362 107.4197278552588 159.80690497085106 C 0.0 **** -0.24
25277 H 2.0442597583925277 107.49656799517751 159.85935381092918 H 0.0 **** 0.06
25278 H 3.470049224198135 106.61919608064275 160.46569216402503 H 0.0 **** 0.06
25279 H 3.57725214135435 108.36288662001769 160.12037040519658 H 0.0 **** 0.06
25280 H 3.4294154486057664 107.19863201564081 158.7821253622974 H 0.0 **** 0.06
25281 C 196.50906308629743 263.7929120511979 116.93591184828921 C 0.0 **** -0.24
25282 H 196.57745911589836 263.5196642707875 115.883113680603 H 0.0 **** 0.06
25283 H 197.11522362294778 264.680832096394 117.1207949348528 H 0.0 **** 0.06
25284 H 196.87317461275785 262.96956798846367 117.55050496656142 H 0.0 **** 0.06
25285 H 195.46953267921452 264.0030806700694 117.18910749978224 H 0.0 **** 0.06
25286 C 170.68149343376098 46.08912649775692 104.30228677567194 C 0.0 **** -0.24
25287 H 170.707550047091 46.82407736931532 105.10741075589738 H 0.0 **** 0.06
25288 H 170.619280934176 45.08680602236444 104.72828399156293 H 0.0 **** 0.06
25289 H 171.58837384895145 46.17359871500324 103.70437147870155 H 0.0 **** 0.06
25290 H 169.8119422300694 46.270852775806475 103.67177380387238 H 0.0 **** 0.06
25291 C 188.92449422974755 264.5129469900446 90.35422030630542 C 0.0 **** -0.24
25292 H 188.30866453842026 264.98988435936525 89.59201568481245 H 0.0 **** 0.06
25293 H 189.81254698862875 265.1188253875733 90.53418978941556 H 0.0 **** 0.06
25294 H 189.22393585212666 263.5224051006037 90.01097428304331 H 0.0 **** 0.06
25295 H 188.35300151158373 264.41971320838263 91.27768924727422 H 0.0 **** 0.06
25296 C 49.06068274278118 101.46173610244449 182.95578707113913 C 0.0 **** -0.24
25297 H 49.17931063238757 102.54089380463338 183.05334437668637 H 0.0 **** 0.06
25298 H 49.427606527183684 100.97339631781168 183.85911732397165 H 0.0 **** 0.06
25299 H 49.630393362177756 101.1104242502455 182.09570327235247 H 0.0 **** 0.06
25300 H 48.00626341046154 101.22362670905633 182.8155653231682 H 0.0 **** 0.06
25301 C 278.87645513315283 278.2389252510119 305.6922924160487 C 0.0 **** -0.24
25302 H 279.511211349228 277.3940824961734 305.9613604744643 H 0.0 **** 0.06
25303 H 277.9350413470568 278.1742154324364 306.2385625654011 H 0.0 **** 0.06
25304 H 278.67867889493976 278.2161054939971 304.62033244894417 H 0.0 **** 0.06
25305 H 279.38346574690576 279.16977940622303 305.9486791054982 H 0.0 **** 0.06
25306 C 139.14136364382028 289.44180198117226 309.7346248095883 C 0.0 **** -0.24
25307 H 138.2699666416285 290.0569626826273 309.51166982977236 H 0.0 **** 0.06
25308 H 138.95394829117 288.8611321095825 310.63770251091285 H 0.0 **** 0.06
25309 H 140.00890256624373 290.0840284143115 309.8881330472652 H 0.0 **** 0.06
25310 H 139.33259198683774 288.7673197719065 308.90104409228076 H 0.0 **** 0.06
25311 C 271.435734096043 22.21758108141276 230.11243633356383 C 0.0 **** -0.24
25312 H 270.6174739920183 21.628200974573417 230.52597332222908 H 0.0 **** 0.06
25313 H 271.05296121405684 23.178730893488222 229.76833415058312 H 0.0 **** 0.06
25314 H 271.88173311179816 21.682185437124872 229.2755338766675 H 0.0 **** 0.06
25315 H 272.19009879680686 22.38266780832501 230.88262762612558 H 0.0 **** 0.06
25316 C 94.50486831281722 249.47172230946936 212.48508448298116 C 0.0 **** -0.24
25317 H 94.22949214565207 250.4977258380946 212.2410679352771 H 0.0 **** 0.06
25318 H 95.41192594065512 249.4733801425466 213.0896322990437 H 0.0 **** 0.06
25319 H 94.6816537435169 248.9146478758309 211.5646794962239 H 0.0 **** 0.06
25320 H 93.6958304750112 249.0009354308083 213.04367990214482 H 0.0 **** 0.06
25321 C 235.77365783810626 167.72078625492992 62.83553296767411 C 0.0 **** -0.24
25322 H 235.39855435078687 167.07765479138612 62.03919281043284 H 0.0 **** 0.06
25323 H 236.7825688433324 168.0531047691748 62.590809983214115 H 0.0 **** 0.06
25324 H 235.7913323645289 167.16525725583932 63.773145090010075 H 0.0 **** 0.06
25325 H 235.12050687195278 168.5870786511873 62.93944470174489 H 0.0 **** 0.06
25326 C 182.23150119726853 112.68313781225672 126.1752994104003 C 0.0 **** -0.24
25327 H 181.29931009522278 112.12429762528896 126.24952702479516 H 0.0 **** 0.06
25328 H 182.72157830721613 112.44654453058214 125.23031295545167 H 0.0 **** 0.06
25329 H 182.88605463814372 112.40988359251375 127.0028441364627 H 0.0 **** 0.06
25330 H 182.0191634256875 113.75168068100234 126.21711042189276 H 0.0 **** 0.06
25331 C 10.736633581423007 10.885023362387756 150.5810884877685 C 0.0 **** -0.24
25332 H 11.30828601219308 10.030066382210123 150.9401377933812 H 0.0 **** 0.06
25333 H 11.420292147708409 11.65830823724093 150.2301072646123 H 0.0 **** 0.06
25334 H 10.127164308445955 11.280847088736607 151.39375701487842 H 0.0 **** 0.06
25335 H 10.090260480162058 10.571728365518481 149.76134376647838 H 0.0 **** 0.06
25336 C 43.016872833349794 244.31995631408262 130.5183766874095 C 0.0 **** -0.24
25337 H 42.53040544496503 243.50002094892506 131.04629412874567 H 0.0 **** 0.06
25338 H 44.07929527591034 244.32747500588277 130.76052616552187 H 0.0 **** 0.06
25339 H 42.567152683175436 245.26498570820198 130.82200570132795 H 0.0 **** 0.06
25340 H 42.89015144655866 244.185904123388 129.44384932496155 H 0.0 **** 0.06
25341 C 255.78576553777262 90.37454650174018 104.85380147413005 C 0.0 **** -0.24
25342 H 254.77126570501636 90.75562918280815 104.96702879260943 H 0.0 **** 0.06
25343 H 256.4969821989675 91.1324633466765 105.18089054934205 H 0.0 **** 0.06
25344 H 255.96802339054662 90.1329960859266 103.80637280151046 H 0.0 **** 0.06
25345 H 255.9062980438051 89.47626865797571 105.45987917814153 H 0.0 **** 0.06
25346 C 166.110493200576 239.84857903799008 204.5936459743084 C 0.0 **** -0.24
25347 H 165.42734861100354 240.1960547750604 203.81792022595243 H 0.0 **** 0.06
25348 H 165.5744394897111 239.19705593527945 205.28383900244864 H 0.0 **** 0.06
25349 H 166.50846857758677 240.70555547827564 205.1374523110705 H 0.0 **** 0.06
25350 H 166.9311941507964 239.29729829911548 204.1352696607907 H 0.0 **** 0.06
25351 C 176.23357602160377 305.2353837164459 287.21457082347035 C 0.0 **** -0.24
25352 H 176.0911245230855 304.5590338512612 288.0576703326794 H 0.0 **** 0.06
25353 H 176.3954148273158 306.24814807535915 287.5836546950217 H 0.0 **** 0.06
25354 H 175.34579574873777 305.21660964860837 286.58096204841985 H 0.0 **** 0.06
25355 H 177.0997196994515 304.9157981800402 286.63492044157624 H 0.0 **** 0.06
25356 C 309.2330116471164 15.962530044187986 66.76179154766675 C 0.0 **** -0.24
25357 H 309.3295913859125 15.32441970536668 67.63964910739918 H 0.0 **** 0.06
25358 H 309.4190302422982 16.999673567742107 67.04488826990752 H 0.0 **** 0.06
25359 H 308.2262006386566 15.872143436492593 66.35573835152408 H 0.0 **** 0.06
25360 H 309.95833809983196 15.656116302377285 66.00822237058694 H 0.0 **** 0.06
25361 C 15.689606628517865 21.55711526694995 112.16342504564196 C 0.0 **** -0.24
25362 H 15.344925227041074 21.162649035851388 113.11888225052343 H 0.0 **** 0.06
25363 H 16.51043975422158 22.254700722575706 112.33279111715032 H 0.0 **** 0.06
25364 H 14.86933035666273 22.075970700365673 111.66761235313524 H 0.0 **** 0.06
25365 H 16.033173066131084 20.73661796981655 111.53370317295764 H 0.0 **** 0.06
25366 C 196.94728798312798 77.84243328128355 39.865053477299256 C 0.0 **** -0.24
25367 H 196.09530997534443 77.35694799518711 40.34074650859705 H 0.0 **** 0.06
25368 H 196.66573584720135 78.84850269740215 39.553940836509156 H 0.0 **** 0.06
25369 H 197.25503255168695 77.26409799289516 38.99363341401741 H 0.0 **** 0.06
25370 H 197.77420589869917 77.90011415307526 40.57382003550998 H 0.0 **** 0.06
25371 C 118.93617126678544 97.21395112954212 190.16436546695655 C 0.0 **** -0.24
25372 H 119.06001927887499 96.30213888594307 190.748214291645 H 0.0 **** 0.06
25373 H 119.4828095062264 97.12129857490726 189.2252635051437 H 0.0 **** 0.06
25374 H 119.32423291306259 98.06204474672558 190.72914128830723 H 0.0 **** 0.06
25375 H 117.87828084526038 97.37068363689522 189.95550397312957 H 0.0 **** 0.06
25376 C 16.923644158256792 310.47281266921453 19.471004729775956 C 0.0 **** -0.24
25377 H 17.593129572326447 310.0780311790581 20.23568519144426 H 0.0 **** 0.06
25378 H 17.30662775826086 311.42731764901146 19.111011462852815 H 0.0 **** 0.06
25379 H 15.930959075285628 310.61540689241804 19.896964304648634 H 0.0 **** 0.06
25380 H 16.866264926205204 309.7677971159328 18.641327053800694 H 0.0 **** 0.06
25381 C 38.398714609476144 294.1768410919624 196.12685947919562 C 0.0 **** -0.24
25382 H 37.558437006633824 294.0628479970632 196.81141588483996 H 0.0 **** 0.06
25383 H 38.265663039832475 293.5094136082049 195.2743407450888 H 0.0 **** 0.06
25384 H 39.32473692451174 293.9263941413939 196.6436624817544 H 0.0 **** 0.06
25385 H 38.44501621024369 295.20825154536516 195.77713531786088 H 0.0 **** 0.06
25386 C 175.8803540413425 276.6231075009566 117.4778760246378 C 0.0 **** -0.24
25387 H 176.0572317720813 276.6926218325733 116.40421109576766 H 0.0 **** 0.06
25388 H 174.85402190050058 276.300754830399 117.65673476110311 H 0.0 **** 0.06
25389 H 176.0402839392611 277.59956125829444 117.93649988272404 H 0.0 **** 0.06
25390 H 176.56945683458275 275.8997698992858 117.91273738204339 H 0.0 **** 0.06
25391 C 97.19551758536923 271.22703846416925 282.72061950331283 C 0.0 **** -0.24
25392 H 97.60661383564039 272.23429159317374 282.65679666298104 H 0.0 **** 0.06
25393 H 96.4013276534215 271.20520558204885 283.4674374403062 H 0.0 **** 0.06
25394 H 97.98378091663164 270.53125200599004 283.0064856801634 H 0.0 **** 0.06
25395 H 96.79004589429766 270.9381730967851 281.75023562902436 H 0.0 **** 0.06
25396 C 70.33103404517513 149.64516978079035 173.89522604832825 C 0.0 **** -0.24
25397 H 70.68438804412631 149.93880050865027 174.88401131321052 H 0.0 **** 0.06
25398 H 69.95909557021648 150.5233166117756 173.36755260462235 H 0.0 **** 0.06
25399 H 69.52778901538048 148.91571830385504 173.9995443842854 H 0.0 **** 0.06
25400 H 71.15374959874006 149.203014318447 173.3328267084699 H 0.0 **** 0.06
25401 C 133.47784873782405 129.317649918281 149.35580219204053 C 0.0 **** -0.24
25402 H 133.59943858457567 130.34464696497733 149.69771053876065 H 0.0 **** 0.06
25403 H 134.3858845145157 128.75233037085482 149.56929737854352 H 0.0 **** 0.06
25404 H 133.29069939307345 129.31206860097032 148.2813203037826 H 0.0 **** 0.06
25405 H 132.6335993315976 128.86014256600504 149.8729146738308 H 0.0 **** 0.06
25406 C 260.70565417381613 115.2996086578035 246.84034728287222 C 0.0 **** -0.24
25407 H 260.5716079509267 114.9332392503714 247.85819521741328 H 0.0 **** 0.06
25408 H 259.7509026510876 115.27027371488228 246.31612944941168 H 0.0 **** 0.06
25409 H 261.426841186125 114.66939079041123 246.32025394375285 H 0.0 **** 0.06
25410 H 261.0746176241486 116.3253108893309 246.8696603994607 H 0.0 **** 0.06
25411 C 197.90895585851382 189.16025523509944 258.5644164021974 C 0.0 **** -0.24
25412 H 197.0371059309332 189.1257920025409 257.9117102387008 H 0.0 **** 0.06
25413 H 197.7039955328696 189.81986647244696 259.40845943233916 H 0.0 **** 0.06
25414 H 198.7657381465038 189.54022236895787 258.006738677873 H 0.0 **** 0.06
25415 H 198.12870749202727 188.15795307190444 258.9308614035569 H 0.0 **** 0.06
25416 C 224.52124536466653 193.04508059578438 126.25162958068395 C 0.0 **** -0.24
25417 H 225.39168509651017 193.46448339988194 126.7545622838291 H 0.0 **** 0.06
25418 H 223.6650173506378 193.0691856465195 126.92628718860126 H 0.0 **** 0.06
25419 H 224.7288154382266 192.01410298935684 125.9638810920926 H 0.0 **** 0.06
25420 H 224.29827199727154 193.63287433357874 125.3610984190098 H 0.0 **** 0.06
25421 C 281.9015041222481 248.8336553229116 98.67477263737993 C 0.0 **** -0.24
25422 H 281.86194751204727 248.38178910709632 99.66506276656955 H 0.0 **** 0.06
25423 H 280.9393656806867 248.70864691563486 98.17878991200354 H 0.0 **** 0.06
25424 H 282.67969171558514 248.3490103700258 98.08536557256252 H 0.0 **** 0.06
25425 H 282.12691226100134 249.89645552473888 98.76900775298782 H 0.0 **** 0.06
25426 C 198.58683796916512 256.51148230513724 69.61458778114954 C 0.0 **** -0.24
25427 H 199.1614084544106 257.42792580784607 69.47786025490021 H 0.0 **** 0.06
25428 H 198.54837747235757 255.96303799011866 68.67390878747014 H 0.0 **** 0.06
25429 H 197.5744300482985 256.76235796260556 69.93138891271056 H 0.0 **** 0.06
25430 H 199.06347653861962 255.89445849032165 70.37640051188833 H 0.0 **** 0.06
25431 C 179.4241637930221 62.23532925100028 129.96597958972995 C 0.0 **** -0.24
25432 H 179.68595232886196 62.61266911602905 130.95524433957328 H 0.0 **** 0.06
25433 H 178.3466521612374 62.3126335394868 129.82115528325335 H 0.0 **** 0.06
25434 H 179.7286341357489 61.19227950894404 129.8839162439143 H 0.0 **** 0.06
25435 H 179.93640304088387 62.8253206195547 129.20572667816188 H 0.0 **** 0.06
25436 C 19.029702592687798 278.85339580029984 129.90758708796156 C 0.0 **** -0.24
25437 H 19.241846683174018 278.10117532080756 129.14692120130127 H 0.0 **** 0.06
25438 H 18.219426673875915 278.50434955246624 130.5474347266853 H 0.0 **** 0.06
25439 H 18.737593401897385 279.78527976738985 129.42473427707233 H 0.0 **** 0.06
25440 H 19.922874117212984 279.02088067416116 130.51035802240972 H 0.0 **** 0.06
25441 C 188.63139494575955 36.86253981839786 95.99490345530523 C 0.0 **** -0.24
25442 H 188.68545057545754 36.20214630481348 95.12872521067177 H 0.0 **** 0.06
25443 H 189.51306177667635 36.716958473898785 96.61885218730583 H 0.0 **** 0.06
25444 H 187.7352409712064 36.63059953568904 96.57165480165892 H 0.0 **** 0.06
25445 H 188.58985380394256 37.898508276676694 95.65885876194108 H 0.0 **** 0.06
25446 C 179.26566357270121 311.7469714516271 312.0792200303114 C 0.0 **** -0.24
25447 H 178.2370726812133 311.3937169152325 312.00905338121703 H 0.0 **** 0.06
25448 H 179.47890781407074 312.41217790241524 311.2429894296544 H 0.0 **** 0.06
25449 H 179.94480784482698 310.8945195218253 312.04754798248644 H 0.0 **** 0.06
25450 H 179.40181327928127 312.2853353882199 313.0166302258226 H 0.0 **** 0.06
25451 C 51.47905863782336 163.42617431803745 95.39938259316168 C 0.0 **** -0.24
25452 H 50.521198178999924 163.21331477497648 94.92433995512499 H 0.0 **** 0.06
25453 H 52.25729875035523 163.4818472642255 94.63699803879425 H 0.0 **** 0.06
25454 H 51.71825515148956 162.63193610318064 96.1061866916188 H 0.0 **** 0.06
25455 H 51.418128709329295 164.37734907516102 95.92682687324793 H 0.0 **** 0.06
25456 C 294.49714093448915 272.70076799699774 117.44145076726227 C 0.0 **** -0.24
25457 H 295.35288088010907 273.3733364517265 117.37621141804672 H 0.0 **** 0.06
25458 H 294.84218864121635 271.6954885923889 117.68070323478793 H 0.0 **** 0.06
25459 H 293.9726025814292 272.6866568322414 116.4855037258595 H 0.0 **** 0.06
25460 H 293.8202095668411 273.0485680169315 118.2221283076546 H 0.0 **** 0.06
25461 C 4.9242311887951615 202.4487029941513 183.33379869889205 C 0.0 **** -0.24
25462 H 5.7161568284443405 202.48511611212314 182.58653220657527 H 0.0 **** 0.06
25463 H 4.058052278832193 201.93173611908162 182.9204336093427 H 0.0 **** 0.06
25464 H 4.6428719467740365 203.46405065870152 183.61371377264038 H 0.0 **** 0.06
25465 H 5.2797603132245285 201.9151346907251 184.21521588542004 H 0.0 **** 0.06
25466 C 305.00545255506404 221.8069429209002 241.27063220690061 C 0.0 **** -0.24
25467 H 305.3443786584254 221.01259834915786 241.93520134932365 H 0.0 **** 0.06
25468 H 304.4030490969488 222.51944881797658 241.83461516108022 H 0.0 **** 0.06
25469 H 304.40455210957765 221.3775462637899 240.46850221812176 H 0.0 **** 0.06
25470 H 305.86853333792965 222.31771605666518 240.84453279054384 H 0.0 **** 0.06
25471 C 302.595259322417 52.49366374092685 284.1748191352855 C 0.0 **** -0.24
25472 H 302.8391787901322 53.52575394243178 283.92015373571627 H 0.0 **** 0.06
25473 H 303.0428347910439 52.2421984114749 285.1366193953351 H 0.0 **** 0.06
25474 H 302.9871399209661 51.82802836050189 283.40484933521765 H 0.0 **** 0.06
25475 H 301.5129626028136 52.380572252747356 284.23585580445183 H 0.0 **** 0.06
25476 C 0.09941049897349785 215.86157066864152 104.80929341777963 C 0.0 **** -0.24
25477 H 0.9430179881181999 216.11399147358028 104.16718634759337 H 0.0 **** 0.06
25478 H -0.6579961892923762 216.64215024807447 104.73619088955104 H 0.0 **** 0.06
25479 H 0.4393485572626048 215.78028353909747 105.84109565808035 H 0.0 **** 0.06
25480 H -0.32701730904732074 214.91034294182896 104.49053726171047 H 0.0 **** 0.06
25481 C 300.19297931283097 290.0649221639041 63.53650903251645 C 0.0 **** -0.24
25482 H 300.83546333626686 289.18406399094704 63.52318566276341 H 0.0 **** 0.06
25483 H 299.17241901277157 289.7731201094571 63.285920542883986 H 0.0 **** 0.06
25484 H 300.5535585384722 290.7879961351783 62.805579487635214 H 0.0 **** 0.06
25485 H 300.2101759010502 290.5119383976678 64.52983229723367 H 0.0 **** 0.06
25486 C 293.0155336480413 275.68205442727697 180.57926674712786 C 0.0 **** -0.24
25487 H 292.35438292039856 276.0145414646497 181.3799854483467 H 0.0 **** 0.06
25488 H 293.3602497406284 274.66923282215174 180.78991946070448 H 0.0 **** 0.06
25489 H 293.87311209423757 276.3519263513349 180.5161385905443 H 0.0 **** 0.06
25490 H 292.4749257830324 275.69414549876603 179.63277306362983 H 0.0 **** 0.06
25491 C 212.13242668440603 66.2654237557837 196.38921665922015 C 0.0 **** -0.24
25492 H 212.17049993085868 65.26853657322488 196.82866713903815 H 0.0 **** 0.06
25493 H 212.75650467138922 66.29294654727727 195.49491943760427 H 0.0 **** 0.06
25494 H 212.49827920191717 66.99569332181761 197.11098715339443 H 0.0 **** 0.06
25495 H 211.10237015578525 66.50487328767227 196.12100437516602 H 0.0 **** 0.06
25496 C 104.05380107536493 275.0001401365665 242.23395034227528 C 0.0 **** -0.24
25497 H 103.90286387068349 275.71322283398075 241.42351195675246 H 0.0 **** 0.06
25498 H 103.1226307826887 274.46749615406804 242.42729362296578 H 0.0 **** 0.06
25499 H 104.36304192734741 275.53296826874737 243.13379956975464 H 0.0 **** 0.06
25500 H 104.82805917190385 274.28674586698696 241.95097796249533 H 0.0 **** 0.06
25501 C 225.23369331592556 90.88713777522 32.3752510676577 C 0.0 **** -0.24
25502 H 225.4428983842099 90.84419719626945 31.30668909331041 H 0.0 **** 0.06
25503 H 225.15916163316845 89.87436363902282 32.77216532846347 H 0.0 **** 0.06
25504 H 224.29396566395417 91.41321171135172 32.541351942919846 H 0.0 **** 0.06
25505 H 226.04077186670978 91.41757070715946 32.88192697354998 H 0.0 **** 0.06
25506 C 5.94594199463522 47.43575326944938 9.772893935243985 C 0.0 **** -0.24
25507 H 6.740243086892846 47.13703815256406 10.455945468752532 H 0.0 **** 0.06
25508 H 6.300913206189392 48.245611833470775 9.135380095333801 H 0.0 **** 0.06
25509 H 5.082628308048072 47.775838540050984 10.344938372037916 H 0.0 **** 0.06
25510 H 5.658871910494113 46.5853387498868 9.154262168660352 H 0.0 **** 0.06
25511 C 83.63275229342352 199.3656166891118 105.31069881260714 C 0.0 **** -0.24
25512 H 84.01978960515905 198.73092322968472 104.5134901309217 H 0.0 **** 0.06
25513 H 84.2071036921244 200.29145530536522 105.34898300381576 H 0.0 **** 0.06
25514 H 83.71997977253531 198.84375821366655 106.26343458206225 H 0.0 **** 0.06
25515 H 82.58543623683855 199.59521559093702 105.11662725878136 H 0.0 **** 0.06
25516 C 135.30621269428698 26.37162745444374 313.59878395531996 C 0.0 **** -0.24
25517 H 135.92912961297256 27.097882146507175 314.1217590871749 H 0.0 **** 0.06
25518 H 134.26492212768161 26.510993471040194 313.8876514249048 H 0.0 **** 0.06
25519 H 135.62589286425901 25.36341170472332 313.8617667299776 H 0.0 **** 0.06
25520 H 135.40753955312593 26.515096055108756 312.5228174222543 H 0.0 **** 0.06
25521 C 152.81822602827293 166.80901746310354 88.8012870781819 C 0.0 **** -0.24
25522 H 153.27283373741705 166.90238690445005 87.81466438873142 H 0.0 **** 0.06
25523 H 152.15312319088946 165.94542158844433 88.8139255865647 H 0.0 **** 0.06
25524 H 152.24721537936216 167.71046321487364 89.02490896422566 H 0.0 **** 0.06
25525 H 153.59908231866052 166.67761265913788 89.55005445139574 H 0.0 **** 0.06
25526 C 11.892546598666058 23.937495104722444 185.27660244759613 C 0.0 **** -0.24
25527 H 11.521438549719548 23.976463806108512 186.30076825765758 H 0.0 **** 0.06
25528 H 11.51046108593684 23.04186840613241 184.78595203115663 H 0.0 **** 0.06
25529 H 12.982028229594803 23.909173823730868 185.28650344794863 H 0.0 **** 0.06
25530 H 11.55626085775529 24.821155811911638 184.73430916474211 H 0.0 **** 0.06
25531 C 27.718165997352315 243.99664539905325 117.37701090338777 C 0.0 **** -0.24
25532 H 26.904061029610062 243.30441885120115 117.16181364835978 H 0.0 **** 0.06
25533 H 28.627986623301837 243.650422815705 116.88422929657594 H 0.0 **** 0.06
25534 H 27.883221689923488 244.0401711591577 118.45374600464172 H 0.0 **** 0.06
25535 H 27.45985945447663 244.9889530674792 117.00796677496115 H 0.0 **** 0.06
25536 C 52.46714256226798 161.68180146596546 122.88378899914642 C 0.0 **** -0.24
25537 H 53.36709795471978 161.2904655142412 123.35929380377598 H 0.0 **** 0.06
25538 H 52.04523993915399 162.4739995953086 123.50213894025421 H 0.0 **** 0.06
25539 H 51.738493644409004 160.87938241225334 122.7721567326488 H 0.0 **** 0.06
25540 H 52.72059391655739 162.0810434486766 121.90226589941122 H 0.0 **** 0.06
25541 C 95.25984716848421 89.68164841773097 83.99623878518867 C 0.0 **** -0.24
25542 H 95.3308579510323 88.59947249079366 83.8920654829787 H 0.0 **** 0.06
25543 H 96.24872956473243 90.12419230533561 83.87235630749763 H 0.0 **** 0.06
25544 H 94.8729686806677 89.92764626253998 84.98501704390961 H 0.0 **** 0.06
25545 H 94.58675444562564 90.07647410694528 83.23475850663661 H 0.0 **** 0.06
25546 C 304.6559865615375 278.7230056543849 216.6069051289756 C 0.0 **** -0.24
25547 H 305.42352299531984 279.0498556713649 215.90586359239893 H 0.0 **** 0.06
25548 H 303.71114970065037 278.596680658844 216.0784624632501 H 0.0 **** 0.06
25549 H 304.5373227386443 279.47096896452297 217.39026783529016 H 0.0 **** 0.06
25550 H 304.9535020176439 277.7729772272245 217.0534976745548 H 0.0 **** 0.06
25551 C 87.05046452419438 23.558680937808504 194.65972609875377 C 0.0 **** -0.24
25552 H 86.42129717060797 23.929587924583984 195.46864871361169 H 0.0 **** 0.06
25553 H 86.48929377594999 22.83960329218553 194.06356749769617 H 0.0 **** 0.06
25554 H 87.93182999972865 23.07276664090557 195.0791167850029 H 0.0 **** 0.06
25555 H 87.36043105586202 24.39211713597524 194.02946646815576 H 0.0 **** 0.06
25556 C 270.0558540626073 54.5463385706515 14.75467546854486 C 0.0 **** -0.24
25557 H 270.7301270190668 54.72592649232453 13.917996017840437 H 0.0 **** 0.06
25558 H 269.04980530556276 54.359992113423004 14.37815820649837 H 0.0 **** 0.06
25559 H 270.04463876232614 55.4192709334738 15.406234100171503 H 0.0 **** 0.06
25560 H 270.4002260950991 53.67814610548646 15.317734170978497 H 0.0 **** 0.06
25561 C 183.9156230494766 254.27894141618884 160.35429689015297 C 0.0 **** -0.24
25562 H 184.6299056834834 254.869436725038 159.78028995629057 H 0.0 **** 0.06
25563 H 184.39463448851893 253.3608190745666 160.69516454661732 H 0.0 **** 0.06
25564 H 183.06058668728411 254.0314671709797 159.72680931411497 H 0.0 **** 0.06
25565 H 183.5799437818099 254.85477378572824 161.21733562965414 H 0.0 **** 0.06
25566 C 250.80821191935888 89.54563874833028 24.53972336311159 C 0.0 **** -0.24
25567 H 249.90981092868748 89.47218629639127 25.15243516033229 H 0.0 **** 0.06
25568 H 250.5810532964134 89.22516783033353 23.521892969336534 H 0.0 **** 0.06
25569 H 251.5862386845004 88.90724900935703 24.957368236418233 H 0.0 **** 0.06
25570 H 251.15459816319583 90.57973831042048 24.525974830309167 H 0.0 **** 0.06
25571 C 3.878427477485914 213.66990259720063 237.24284580281363 C 0.0 **** -0.24
25572 H 4.890670597723826 213.98430889693697 237.49600166742053 H 0.0 **** 0.06
25573 H 3.587929292284187 214.11359836426686 236.29083255800543 H 0.0 **** 0.06
25574 H 3.1907446451031234 213.99740433279626 238.0219185084979 H 0.0 **** 0.06
25575 H 3.8460957425806015 212.58277566831845 237.16180226226925 H 0.0 **** 0.06
25576 C 310.72807053690155 144.59507067043617 209.1300563663247 C 0.0 **** -0.24
25577 H 311.10438840783286 145.02501892414938 208.20140588712923 H 0.0 **** 0.06
25578 H 309.6400344790476 144.53840962395012 209.08899037869412 H 0.0 **** 0.06
25579 H 311.02872885989115 145.22235661648455 209.9689504374117 H 0.0 **** 0.06
25580 H 311.14009594039214 143.59371848016087 209.25901842412935 H 0.0 **** 0.06
25581 C 238.70231185990815 36.16016469973715 165.6397593073163 C 0.0 **** -0.24
25582 H 238.184440440054 35.94803262224124 164.70423457463164 H 0.0 **** 0.06
25583 H 239.4219393601912 35.3677470910761 165.84370523403123 H 0.0 **** 0.06
25584 H 237.97674105586975 36.21101795840406 166.4516849843776 H 0.0 **** 0.06
25585 H 239.2238759605221 37.11350532671747 165.55851347618864 H 0.0 **** 0.06
25586 C 303.30933266081104 19.521241597205915 109.55937336633866 C 0.0 **** -0.24
25587 H 302.23791627222255 19.703922067721905 109.46642108720641 H 0.0 **** 0.06
25588 H 303.7297429288879 20.197217520292625 110.30350716128814 H 0.0 **** 0.06
25589 H 303.79072139400984 19.6944713850678 108.59672562205088 H 0.0 **** 0.06
25590 H 303.4759275116433 18.489503627757472 109.86863905636059 H 0.0 **** 0.06
25591 C 118.09928899519656 78.13862204183411 195.54184137887336 C 0.0 **** -0.24
25592 H 118.41486760539345 78.71340713858618 196.41266546224455 H 0.0 **** 0.06
25593 H 118.18023380681453 78.75869581598064 194.6486880857492 H 0.0 **** 0.06
25594 H 117.06427328682386 77.82093704358527 195.67233689695564 H 0.0 **** 0.06
25595 H 118.73748652588932 77.26140495174857 195.43589120992323 H 0.0 **** 0.06
25596 C 177.48103146717813 68.8413719797368 77.3981074506649 C 0.0 **** -0.24
25597 H 178.13794117004966 68.02264104058423 77.1046118953592 H 0.0 **** 0.06
25598 H 176.6971193473953 68.46006615361452 78.05321508285874 H 0.0 **** 0.06
25599 H 177.03038151291196 69.28058586777752 76.50886894324663 H 0.0 **** 0.06
25600 H 178.05919458057673 69.59985295723206 77.92522922783473 H 0.0 **** 0.06
25601 C 255.48864050765556 27.255741865535555 256.7792796750017 C 0.0 **** -0.24
25602 H 255.75432561621622 26.210090326467054 256.62483994360093 H 0.0 **** 0.06
25603 H 255.1581602559756 27.689329453063408 255.83507685781785 H 0.0 **** 0.06
25604 H 256.35886832519617 27.801127698228754 257.14543427651483 H 0.0 **** 0.06
25605 H 254.6840118498299 27.32218365260232 257.51122199481364 H 0.0 **** 0.06
25606 C 3.928790185136606 121.95469076457675 313.0739864569539 C 0.0 **** -0.24
25607 H 3.053037076068833 121.30534178939911 313.07819984570773 H 0.0 **** 0.06
25608 H 3.8843289781143966 122.6275890702195 313.9305437655338 H 0.0 **** 0.06
25609 H 3.943488968345065 122.53900809694107 312.15372532406417 H 0.0 **** 0.06
25610 H 4.83165567040659 121.34752160563906 313.1346978660984 H 0.0 **** 0.06
25611 C 120.61207044028956 236.1790720403443 102.51138023667548 C 0.0 **** -0.24
25612 H 120.43167324494755 236.7842411061821 103.3997982708311 H 0.0 **** 0.06
25613 H 121.46173188401792 236.58495369823146 101.96185147198472 H 0.0 **** 0.06
25614 H 119.72677144908334 236.19478043434998 101.87565758279499 H 0.0 **** 0.06
25615 H 120.82800371923179 235.15275135092747 102.80910664415808 H 0.0 **** 0.06
25616 C 218.31892132411247 219.45353595761839 240.15743690386967 C 0.0 **** -0.24
25617 H 219.4013226014123 219.37026404865145 240.0637746894941 H 0.0 **** 0.06
25618 H 217.8641776876137 219.41251698754616 239.1678107027754 H 0.0 **** 0.06
25619 H 218.06710398440606 220.39986208401865 240.63547376121812 H 0.0 **** 0.06
25620 H 217.9431331925336 218.62929622542555 240.76516587485548 H 0.0 **** 0.06
25621 C 270.94099636930184 63.73690435734585 125.23945620818566 C 0.0 **** -0.24
25622 H 270.6066167641722 63.3196755814194 124.28919214924937 H 0.0 **** 0.06
25623 H 271.92922491568163 64.1814835561344 125.1136228462642 H 0.0 **** 0.06
25624 H 270.98949452021327 62.94536926730635 125.98642038057287 H 0.0 **** 0.06
25625 H 270.2367682285695 64.50252928067107 125.56674897872111 H 0.0 **** 0.06
25626 C 229.96386307593812 211.35626377272405 156.96654442724662 C 0.0 **** -0.24
25627 H 229.0173896864976 211.05990733412307 156.51514623146375 H 0.0 **** 0.06
25628 H 230.78538618790657 211.07066286780582 156.30804973594473 H 0.0 **** 0.06
25629 H 230.07917615435952 210.85825352100352 157.92909937726796 H 0.0 **** 0.06
25630 H 229.97421593226386 212.43648768090628 157.11268982611506 H 0.0 **** 0.06
25631 C 236.5833218882154 221.04400755859055 233.7207787032091 C 0.0 **** -0.24
25632 H 236.52406434462716 222.07241340246318 233.36643803748515 H 0.0 **** 0.06
25633 H 237.4950935157076 220.5819218364538 233.34276331590928 H 0.0 **** 0.06
25634 H 235.71733870717713 220.4858268412915 233.36359279739517 H 0.0 **** 0.06
25635 H 236.59679098534974 221.0358681541537 234.81032066204682 H 0.0 **** 0.06
25636 C 274.557512632932 132.6253582309964 144.95821538441118 C 0.0 **** -0.24
25637 H 274.8348248809515 131.8208942201275 144.27718827689245 H 0.0 **** 0.06
25638 H 273.7304495211058 133.19279584386814 144.53303835233416 H 0.0 **** 0.06
25639 H 275.4124195315069 133.2854196024389 145.1079235488462 H 0.0 **** 0.06
25640 H 274.2544494787945 132.20226785524292 145.91598289732897 H 0.0 **** 0.06
25641 C 294.6963910633465 167.41117379807645 303.91863676131345 C 0.0 **** -0.24
25642 H 294.2883229556971 167.2999676579323 302.9136492154281 H 0.0 **** 0.06
25643 H 295.7419471857909 167.71255987905982 303.8546744677781 H 0.0 **** 0.06
25644 H 294.62427894749464 166.45930031660214 304.4464180376696 H 0.0 **** 0.06
25645 H 294.1308041321493 168.17029930503662 304.458638832005 H 0.0 **** 0.06
25646 C 265.8173025226471 125.5385451336441 63.947132376051655 C 0.0 **** -0.24
25647 H 266.7864329157542 125.60255680518958 64.4428895156208 H 0.0 **** 0.06
25648 H 265.2405765950506 126.43826512464113 64.16135070325711 H 0.0 **** 0.06
25649 H 265.2785902827532 124.66514650761133 64.31449638092701 H 0.0 **** 0.06
25650 H 265.9654546220946 125.44768558571661 62.871316478424205 H 0.0 **** 0.06
25651 C 260.68542350151733 141.26313718008785 278.00228292581045 C 0.0 **** -0.24
25652 H 261.4927704954557 140.9780691544738 277.3282077080818 H 0.0 **** 0.06
25653 H 260.48820821296306 140.44690926585258 278.6976817140044 H 0.0 **** 0.06
25654 H 259.7852531158461 141.4715818080702 277.4232125776131 H 0.0 **** 0.06
25655 H 260.97316335275855 142.15468982392412 278.5590153651438 H 0.0 **** 0.06
25656 C 170.7105107337273 205.3493765576958 15.751087342876446 C 0.0 **** -0.24
25657 H 171.37749383725827 204.5090245047565 15.559042254598026 H 0.0 **** 0.06
25658 H 169.93908092328383 205.38320081932028 14.98114233110421 H 0.0 **** 0.06
25659 H 171.2821740571638 206.27740789849855 15.733276497331403 H 0.0 **** 0.06
25660 H 170.24378616435882 205.2269020504654 16.728092725704897 H 0.0 **** 0.06
25661 C 41.55128914318209 301.6321839674269 188.4374078051123 C 0.0 **** -0.24
25662 H 41.27870647501635 302.53398476172305 187.8895187974844 H 0.0 **** 0.06
25663 H 40.96274616984124 300.79205836480946 188.0694125767447 H 0.0 **** 0.06
25664 H 41.35199064969575 301.7788877752782 189.49949464640946 H 0.0 **** 0.06
25665 H 42.61197607157999 301.425296511685 188.29204558678322 H 0.0 **** 0.06
25666 C 145.73713774953234 163.1214119629181 116.84290308986829 C 0.0 **** -0.24
25667 H 144.77943186380736 162.87941453838306 117.30388143386764 H 0.0 **** 0.06
25668 H 146.3783692539917 163.61378183838565 117.57523390413257 H 0.0 **** 0.06
25669 H 145.5747342685039 163.78718370252557 115.99581664452288 H 0.0 **** 0.06
25670 H 146.21615344927127 162.20456385722815 116.49902249806522 H 0.0 **** 0.06
25671 C 268.17513925489345 213.85304407657128 34.085795304057086 C 0.0 **** -0.24
25672 H 268.5377662289664 213.65650712131986 33.07683085821154 H 0.0 **** 0.06
25673 H 268.9826242235548 213.68725279835002 34.800142303129576 H 0.0 **** 0.06
25674 H 267.34664612361394 213.1821326238104 34.31021521949893 H 0.0 **** 0.06
25675 H 267.83548422400116 214.8863143606406 34.15452905374724 H 0.0 **** 0.06
25676 C 53.70428658741557 28.26428902459338 158.66033849839414 C 0.0 **** -0.24
25677 H 53.28720684952026 28.89991516811625 157.87900422328784 H 0.0 **** 0.06
25678 H 54.093676836895696 28.886519764904563 159.46568282605097 H 0.0 **** 0.06
25679 H 54.51083684750759 27.660196150220656 158.2445034009993 H 0.0 **** 0.06
25680 H 52.9248909930744 27.61037491478254 159.0499975660647 H 0.0 **** 0.06
25681 C 180.18686202433616 236.13721964818325 216.6602245521558 C 0.0 **** -0.24
25682 H 179.7236745322116 235.19905827037604 216.3532556124406 H 0.0 **** 0.06
25683 H 180.9005982752392 235.94428191263302 217.46111277414832 H 0.0 **** 0.06
25684 H 179.4172685071823 236.82318390235886 217.01427569338892 H 0.0 **** 0.06
25685 H 180.70549891765506 236.58009072281163 215.8094776229044 H 0.0 **** 0.06
25686 C 35.885785443829036 29.432787693494504 283.85157747058724 C 0.0 **** -0.24
25687 H 35.02816980689758 29.31757479013379 284.51391481158544 H 0.0 **** 0.06
25688 H 35.91592373218606 28.59910218167002 283.14823792793703 H 0.0 **** 0.06
25689 H 36.802436253296065 29.442681378445315 284.44173317954903 H 0.0 **** 0.06
25690 H 35.79743583303656 30.369248496090904 283.30150215027663 H 0.0 **** 0.06
25691 C 18.938610923753473 204.57581843094005 235.03221302795654 C 0.0 **** -0.24
25692 H 19.49221842404782 203.72386619650376 235.42450688111268 H 0.0 **** 0.06
25693 H 19.608661097153316 205.20387014559856 234.44336995207527 H 0.0 **** 0.06
25694 H 18.529962274694128 205.15566999218282 235.85981969704596 H 0.0 **** 0.06
25695 H 18.123925180067772 204.22097360154328 234.40033595161827 H 0.0 **** 0.06
25696 C 194.7993993004004 110.97681828591092 184.56845786090707 C 0.0 **** -0.24
25697 H 193.90369014605994 110.55828455973139 184.10924115616297 H 0.0 **** 0.06
25698 H 195.20993170827353 111.75362446946681 183.9218144860343 H 0.0 **** 0.06
25699 H 195.54019352140745 110.188603007289 184.70399364246595 H 0.0 **** 0.06
25700 H 194.54461287231226 111.4064162541408 185.53673509748398 H 0.0 **** 0.06
25701 C 308.4388062199822 239.83372092370564 235.11185695417097 C 0.0 **** -0.24
25702 H 308.0181321374504 238.82806214974715 235.14722789116797 H 0.0 **** 0.06
25703 H 309.436753431844 239.7937805545137 234.6742481297534 H 0.0 **** 0.06
25704 H 308.501638845794 240.23660651133156 236.12242392953286 H 0.0 **** 0.06
25705 H 307.7999761725765 240.47377766545586 234.5040881794166 H 0.0 **** 0.06
25706 C 219.0595573333477 77.81553256298906 81.54189590570118 C 0.0 **** -0.24
25707 H 220.0357336168473 78.30048876050537 81.54406385099455 H 0.0 **** 0.06
25708 H 218.27920115330895 78.56705322847242 81.6645020824632 H 0.0 **** 0.06
25709 H 219.00823365055703 77.10108411216339 82.36312890424708 H 0.0 **** 0.06
25710 H 218.9158689847909 77.29323206316542 80.59641127172495 H 0.0 **** 0.06
25711 C 45.078716701361685 144.83516610409185 29.161220288047957 C 0.0 **** -0.24
25712 H 44.25561621639531 144.70553032207243 28.457523256751955 H 0.0 **** 0.06
25713 H 45.76516866330482 143.99218237882548 29.076217363694326 H 0.0 **** 0.06
25714 H 44.683511530490335 144.88120726627062 30.176485001606466 H 0.0 **** 0.06
25715 H 45.60723001831198 145.76006144440464 28.93455837164268 H 0.0 **** 0.06
25716 C 229.1077750946803 46.53110145753783 298.60857144593825 C 0.0 **** -0.24
25717 H 229.18909800771624 45.53094700232356 298.18298009353896 H 0.0 **** 0.06
25718 H 228.97889892010807 46.45631938418239 299.68879268599625 H 0.0 **** 0.06
25719 H 228.24837242588404 47.040789128260485 298.17401434148445 H 0.0 **** 0.06
25720 H 230.01431022607525 47.09480985556246 298.3891694274452 H 0.0 **** 0.06
25721 C 45.87082041986491 244.09854487109365 50.54386919883012 C 0.0 **** -0.24
25722 H 45.65661829257709 243.07932737759847 50.22189947869933 H 0.0 **** 0.06
25723 H 45.41573227694158 244.80346783228947 49.84764168298028 H 0.0 **** 0.06
25724 H 46.949817176566256 244.25319007238727 50.563291160500654 H 0.0 **** 0.06
25725 H 45.46323626253778 244.25701112975963 51.54233449607534 H 0.0 **** 0.06
25726 C 185.4714994304215 272.7932274130093 27.919741700153367 C 0.0 **** -0.24
25727 H 184.50740879253425 272.4680600537831 27.528674211687445 H 0.0 **** 0.06
25728 H 185.81318330656802 272.0865246374692 28.67695941805823 H 0.0 **** 0.06
25729 H 185.36779956297858 273.78191784446796 28.36541412772715 H 0.0 **** 0.06
25730 H 186.19686959264186 272.83470105870293 27.107179447411625 H 0.0 **** 0.06
25731 C 261.8949514179269 304.8534675501602 191.12095027320595 C 0.0 **** -0.24
25732 H 261.08782414769416 304.1224221702639 191.06876239736522 H 0.0 **** 0.06
25733 H 262.56981656063584 304.59093478482396 191.93594962192935 H 0.0 **** 0.06
25734 H 261.477230460618 305.8438479890902 191.2988213863955 H 0.0 **** 0.06
25735 H 262.444847857736 304.85525402931466 190.1802983397448 H 0.0 **** 0.06
25736 C 88.62325708722432 186.40594960736348 272.2253931634167 C 0.0 **** -0.24
25737 H 89.59446229551565 186.22609096580834 272.68624960725106 H 0.0 **** 0.06
25738 H 88.08387182204555 185.4617381302864 272.1350904305107 H 0.0 **** 0.06
25739 H 88.76506185746027 186.8396145628314 271.2356773144391 H 0.0 **** 0.06
25740 H 88.0488056767926 187.09487194904568 272.844898559232 H 0.0 **** 0.06
25741 C 288.1175430943226 105.13101703337855 214.9129621690556 C 0.0 **** -0.24
25742 H 287.99963347292896 104.1797045548661 214.3950970951637 H 0.0 **** 0.06
25743 H 289.03118462963056 105.11034947532224 215.50788346757707 H 0.0 **** 0.06
25744 H 287.2610829754152 105.29650478711403 215.56855978177632 H 0.0 **** 0.06
25745 H 288.17641812755016 105.93756088646253 214.18266696169803 H 0.0 **** 0.06
25746 C 56.03496050157881 183.95071029949384 228.6617564689854 C 0.0 **** -0.24
25747 H 56.80182501992519 184.359279444457 228.00256270329234 H 0.0 **** 0.06
25748 H 56.510861865525754 183.41681080832723 229.48488135586638 H 0.0 **** 0.06
25749 H 55.40193705034602 183.26304239313282 228.10048246006727 H 0.0 **** 0.06
25750 H 55.42721269769686 184.76309133788595 229.05829902453522 H 0.0 **** 0.06
25751 C 34.596713105543074 63.32353904673255 118.63180138695867 C 0.0 **** -0.24
25752 H 33.96343858431197 62.56305931041578 118.1741854951938 H 0.0 **** 0.06
25753 H 34.206355289235546 63.575106409823064 119.61813854479328 H 0.0 **** 0.06
25754 H 34.604251980996196 64.21486821933442 118.00512697587476 H 0.0 **** 0.06
25755 H 35.61239031885185 62.93872113459369 118.729506698416 H 0.0 **** 0.06
25756 C 68.90795757187163 298.5876349629285 87.84158912274029 C 0.0 **** -0.24
25757 H 68.44682480742921 299.1829645477877 87.05372897813464 H 0.0 **** 0.06
25758 H 68.49517545911613 297.57880620991585 87.8232908705709 H 0.0 **** 0.06
25759 H 68.70474594074815 299.0466700663231 88.80950139159052 H 0.0 **** 0.06
25760 H 69.98488011675815 298.54343269349704 87.68025921225666 H 0.0 **** 0.06
25761 C 63.85826723608787 12.388676201417297 69.84322358825472 C 0.0 **** -0.24
25762 H 63.026698249812796 11.695619811215806 69.71772375289746 H 0.0 **** 0.06
25763 H 64.5750329784407 12.24482553413685 69.03400531649015 H 0.0 **** 0.06
25764 H 64.34660373191258 12.200719827108742 70.79925403586424 H 0.0 **** 0.06
25765 H 63.48553877494206 13.412775887546331 69.82058120344038 H 0.0 **** 0.06
25766 C 82.16682670537116 34.6691961180336 112.60079883904064 C 0.0 **** -0.24
25767 H 82.11564907743247 34.786287522118414 111.51812353901363 H 0.0 **** 0.06
25768 H 82.02870528971911 33.619345025747634 112.86012587265836 H 0.0 **** 0.06
25769 H 81.38393163273938 35.26525585238244 113.06855031507149 H 0.0 **** 0.06
25770 H 83.14117659644401 35.00627500094561 112.9568528712336 H 0.0 **** 0.06
25771 C 105.24037270379321 293.2671804984106 256.33171811296984 C 0.0 **** -0.24
25772 H 105.36156685517378 292.37318880054806 255.7198707688526 H 0.0 **** 0.06
25773 H 104.97813664106974 294.1114137131555 255.69370410173855 H 0.0 **** 0.06
25774 H 106.17344559039248 293.4801235973507 256.8522914216715 H 0.0 **** 0.06
25775 H 104.44732424163794 293.1017678549839 257.06098085303626 H 0.0 **** 0.06
25776 C 250.59495311934356 53.4576218000897 200.5481313140428 C 0.0 **** -0.24
25777 H 250.55418904814746 53.473570774075 201.63716679088577 H 0.0 **** 0.06
25778 H 251.2082722227857 52.617796487014516 200.2201199192457 H 0.0 **** 0.06
25779 H 251.03230819541 54.38898857675261 200.1885206712044 H 0.0 **** 0.06
25780 H 249.5877166079615 53.35122666066255 200.14752548981306 H 0.0 **** 0.06
25781 C 38.215981502111646 284.4629470843497 188.01120716043835 C 0.0 **** -0.24
25782 H 37.907880369334976 285.42937266147635 187.61128385637278 H 0.0 **** 0.06
25783 H 38.1984091432536 284.4993029690428 189.10103137442854 H 0.0 **** 0.06
25784 H 39.22559994285706 284.2343015936758 187.67103780535996 H 0.0 **** 0.06
25785 H 37.53090641416668 283.69087426400284 187.6621584101129 H 0.0 **** 0.06
25786 C 76.63064707985484 236.7899437233653 172.01720098307078 C 0.0 **** -0.24
25787 H 75.98489710006075 237.661675264228 172.1301055498505 H 0.0 **** 0.06
25788 H 77.09684586825551 236.8096586619837 171.03137677588126 H 0.0 **** 0.06
25789 H 76.03520163092591 235.8825734177459 172.11984209161102 H 0.0 **** 0.06
25790 H 77.40246372878693 236.80733098815915 172.78615812737394 H 0.0 **** 0.06
25791 C 125.8772985280095 281.3567022484831 21.162917161608107 C 0.0 **** -0.24
25792 H 126.89318968223853 281.2939584076041 21.553174415092826 H 0.0 **** 0.06
25793 H 125.57363760979129 282.4023518378176 21.108096223584084 H 0.0 **** 0.06
25794 H 125.19992075512636 280.8152695769594 21.8239983737721 H 0.0 **** 0.06
25795 H 125.84338411022813 280.9145063905396 20.167172723592216 H 0.0 **** 0.06
25796 C 25.3501558638807 113.0888303108955 93.23246147990201 C 0.0 **** -0.24
25797 H 24.84298189187635 113.59292168688046 92.40964813663447 H 0.0 **** 0.06
25798 H 24.76298587808705 113.20019641712008 94.14384413647338 H 0.0 **** 0.06
25799 H 26.33481981279229 113.53326627296886 93.37850577003437 H 0.0 **** 0.06
25800 H 25.46025258989991 112.02981417464332 92.99808595618708 H 0.0 **** 0.06
25801 C 310.0946413129799 296.8861746389741 5.956202371135987 C 0.0 **** -0.24
25802 H 310.1580467257639 296.1090831169317 5.194459717659811 H 0.0 **** 0.06
25803 H 310.7392552037827 296.62449284032584 6.796014209181635 H 0.0 **** 0.06
25804 H 309.0650617499338 296.9735577762016 6.302227597787748 H 0.0 **** 0.06
25805 H 310.4175001507265 297.83710934135445 5.532433905340838 H 0.0 **** 0.06
25806 C 211.289448281646 48.0871045415754 308.2531729811003 C 0.0 **** -0.24
25807 H 211.14246586167442 47.63082323053595 307.273870736321 H 0.0 **** 0.06
25808 H 211.14070212163278 49.16435055733126 308.17708781447413 H 0.0 **** 0.06
25809 H 212.30153008457177 47.88266023887334 308.60038515649194 H 0.0 **** 0.06
25810 H 210.57095683316493 47.6695044463693 308.9586533492714 H 0.0 **** 0.06
25811 C 270.49390106779816 166.39694574045552 213.84080781394948 C 0.0 **** -0.24
25812 H 270.9065915567177 167.21373246281257 214.43245159000793 H 0.0 **** 0.06
25813 H 270.757517073815 165.44495617925537 214.30325979372657 H 0.0 **** 0.06
25814 H 270.9032795760704 166.43686582746778 212.8312500024003 H 0.0 **** 0.06
25815 H 269.4093423333135 166.4914140137326 213.7965309299109 H 0.0 **** 0.06
25816 C 183.922532510775 182.99992514712687 138.48206212803424 C 0.0 **** -0.24
25817 H 183.11958927093542 182.32753770165613 138.1806709790014 H 0.0 **** 0.06
25818 H 183.93260358077873 183.8700660002471 137.82507367857392 H 0.0 **** 0.06
25819 H 184.87723085798234 182.47911763710903 138.410529254775 H 0.0 **** 0.06
25820 H 183.7601489791777 183.3218634067096 139.51077282416128 H 0.0 **** 0.06
25821 C 99.1764444954625 7.004341499793753 256.9677444907685 C 0.0 **** -0.24
25822 H 98.4358441548265 6.206483249206229 256.9208649260676 H 0.0 **** 0.06
25823 H 99.37993774269788 7.249170760463684 258.0110256077131 H 0.0 **** 0.06
25824 H 98.7917407759229 7.886506445239618 256.4562189233772 H 0.0 **** 0.06
25825 H 100.09628762751763 6.675052981814659 256.4848945840628 H 0.0 **** 0.06
25826 C 101.37512915508833 9.440691309290628 184.11837862678993 C 0.0 **** -0.24
25827 H 101.1892956658046 8.681471449143885 183.35846582286166 H 0.0 **** 0.06
25828 H 100.73453593458936 9.25504058237027 184.9810659905997 H 0.0 **** 0.06
25829 H 101.15591473713397 10.426507640822479 183.7084682115222 H 0.0 **** 0.06
25830 H 102.4206509144066 9.398377522488829 184.42585244719004 H 0.0 **** 0.06
25831 C 231.80366270109374 121.52634192498283 277.6383612490159 C 0.0 **** -0.24
25832 H 231.98563031538566 121.00354054484589 278.57732922194185 H 0.0 **** 0.06
25833 H 232.71868484204532 121.53619332855322 277.04552755854 H 0.0 **** 0.06
25834 H 231.49363959368867 122.54964475135165 277.84625386809273 H 0.0 **** 0.06
25835 H 231.01648704889055 121.0138298480019 277.0848766367851 H 0.0 **** 0.06
25836 C 175.9606023553522 54.682427632080476 232.52626405064666 C 0.0 **** -0.24
25837 H 176.84738707118902 54.69812922634162 233.1613275796804 H 0.0 **** 0.06
25838 H 176.2064944241178 54.214139123285065 231.57247721957202 H 0.0 **** 0.06
25839 H 175.61952533611668 55.70328737325883 232.35363089456646 H 0.0 **** 0.06
25840 H 175.17203041454815 54.1138770232848 233.0189453351813 H 0.0 **** 0.06
25841 C 141.74769877647842 208.95940766833934 55.91257924518786 C 0.0 **** -0.24
25842 H 141.92305473565133 207.9771649168663 56.35133295114409 H 0.0 **** 0.06
25843 H 140.92050092137495 208.89940183793874 55.205467261341425 H 0.0 **** 0.06
25844 H 142.64696236365657 209.2894443604471 55.39223980433735 H 0.0 **** 0.06
25845 H 141.50228194998246 209.67127647617315 56.70034807500602 H 0.0 **** 0.06
25846 C 75.95452821847664 15.641594427768098 260.38564199378317 C 0.0 **** -0.24
25847 H 75.70777453310663 16.24798189664949 261.25691130030344 H 0.0 **** 0.06
25848 H 75.03526369836783 15.288032447045566 259.9177359970361 H 0.0 **** 0.06
25849 H 76.55643439107862 14.788205067025501 260.6951931213354 H 0.0 **** 0.06
25850 H 76.51662997648441 16.243112088416808 259.67170329560423 H 0.0 **** 0.06
25851 C 94.11084897592977 95.60763438635706 230.8261952709592 C 0.0 **** -0.24
25852 H 93.35384728277373 95.85290727874025 230.08165985054956 H 0.0 **** 0.06
25853 H 94.23437242329089 94.52612787800595 230.87582366023787 H 0.0 **** 0.06
25854 H 93.79568853937579 95.98383618739575 231.8000050361735 H 0.0 **** 0.06
25855 H 95.05777949167222 96.06942157883546 230.54732158032684 H 0.0 **** 0.06
25856 C 313.4364075061825 295.3341066670667 172.13202541308584 C 0.0 **** -0.24
25857 H 314.45730048967937 295.40765177419553 171.75696943821276 H 0.0 **** 0.06
25858 H 313.1428402942172 294.2856482552529 172.18417520680714 H 0.0 **** 0.06
25859 H 312.7635052278804 295.8667290363261 171.45895610619124 H 0.0 **** 0.06
25860 H 313.38243216482044 295.77747062050804 173.12584502097354 H 0.0 **** 0.06
25861 C 16.292304833895074 197.30945019974507 17.858850519396313 C 0.0 **** -0.24
25862 H 15.584491570223804 196.4831212312647 17.934904291957864 H 0.0 **** 0.06
25863 H 16.607980577475587 197.61060235373367 18.857886332777184 H 0.0 **** 0.06
25864 H 15.813544676635104 198.1517880130358 17.358593511339592 H 0.0 **** 0.06
25865 H 17.16043523086543 196.99051674541317 17.282922215853546 H 0.0 **** 0.06
25866 C 256.02935428537785 217.40737305903156 181.35189681167856 C 0.0 **** -0.24
25867 H 256.1773031984092 216.34150451051212 181.18218617460786 H 0.0 **** 0.06
25868 H 256.93844185023414 217.94672197168055 181.08282264503322 H 0.0 **** 0.06
25869 H 255.80276086488388 217.57920092147 182.4038026792095 H 0.0 **** 0.06
25870 H 255.20097988665466 217.76087639079014 180.73822051393836 H 0.0 **** 0.06
25871 C 192.53191020971434 32.88465984658464 118.73260710150512 C 0.0 **** -0.24
25872 H 193.00660542632778 32.993529305379184 119.70891199874276 H 0.0 **** 0.06
25873 H 192.5369755467015 33.84593022584747 118.21856045849438 H 0.0 **** 0.06
25874 H 191.5038800213432 32.547886754985626 118.86488395121384 H 0.0 **** 0.06
25875 H 193.08166693578892 32.15207200802385 118.14126290973985 H 0.0 **** 0.06
25876 C 163.37604966134666 179.7660944757801 130.99129310989497 C 0.0 **** -0.24
25877 H 163.4501820369734 179.97355948095958 129.92351175815838 H 0.0 **** 0.06
25878 H 162.54906127933145 180.33610911145632 131.41527528316576 H 0.0 **** 0.06
25879 H 164.3059259616678 180.05242542674483 131.48244176516235 H 0.0 **** 0.06
25880 H 163.19893138045234 178.70036352968077 131.14143311859848 H 0.0 **** 0.06
25881 C 75.34079131037802 82.54972522882372 291.77993629050627 C 0.0 **** -0.24
25882 H 74.48516284209231 83.13523824531444 292.1153357219906 H 0.0 **** 0.06
25883 H 75.65488383997283 81.87570579429484 292.5777100933548 H 0.0 **** 0.06
25884 H 76.16222528427963 83.21941571343143 291.52616428810603 H 0.0 **** 0.06
25885 H 75.06149980032959 81.96842369311821 290.9013213999324 H 0.0 **** 0.06
25886 C 136.88308670494092 140.77140138655568 125.14540634568218 C 0.0 **** -0.24
25887 H 137.11780731444208 141.39410587225746 124.28261337796701 H 0.0 **** 0.06
25888 H 135.86938103216227 140.38333824728625 125.04825616949967 H 0.0 **** 0.06
25889 H 136.95950287588153 141.36756715196927 126.05534112576586 H 0.0 **** 0.06
25890 H 137.58716406899464 139.94135272390872 125.19580107900987 H 0.0 **** 0.06
25891 C 283.8717767005154 305.6094647001486 251.19902008992295 C 0.0 **** -0.24
25892 H 284.3768655849841 305.2449462729096 250.30492955664002 H 0.0 **** 0.06
25893 H 282.81714616291697 305.77330517278716 250.97854996314138 H 0.0 **** 0.06
25894 H 284.32721455831296 306.5471589245714 251.51597630905334 H 0.0 **** 0.06
25895 H 283.96599765696027 304.8714240304385 251.99565660154676 H 0.0 **** 0.06
25896 C 143.9914577201665 75.08047860093257 61.06961574700489 C 0.0 **** -0.24
25897 H 144.51687552995458 74.53721273102249 61.85523567485242 H 0.0 **** 0.06
25898 H 144.65121807527638 75.84031094569548 60.650739355277864 H 0.0 **** 0.06
25899 H 143.106118413387 75.55945661148533 61.48891603501332 H 0.0 **** 0.06
25900 H 143.69165760376316 74.38597536160498 60.285550388998814 H 0.0 **** 0.06
25901 C 187.5564167015313 140.54873367597932 89.61648981928866 C 0.0 **** -0.24
25902 H 187.82940822186652 141.08693434651863 88.70878170647427 H 0.0 **** 0.06
25903 H 188.2961579729769 140.74856146202004 90.39233649332795 H 0.0 **** 0.06
25904 H 187.5258190249296 139.47950940101316 89.4094570268042 H 0.0 **** 0.06
25905 H 186.576021362966 140.88237706618253 89.95439278138 H 0.0 **** 0.06
25906 C 178.84913226589134 173.3211430130649 202.381594623352 C 0.0 **** -0.24
25907 H 178.8259208237373 173.66646437273778 203.41491971012005 H 0.0 **** 0.06
25908 H 179.36119074083115 174.05894955636808 201.7630859512998 H 0.0 **** 0.06
25909 H 177.82885878648204 173.18935667418572 202.01979254610353 H 0.0 **** 0.06
25910 H 179.37902137067726 172.3708100114552 202.3273077277134 H 0.0 **** 0.06
25911 C 303.4774685953503 154.99622693338017 212.6271053760347 C 0.0 **** -0.24
25912 H 303.1396869012534 155.44104010505373 211.69142320966034 H 0.0 **** 0.06
25913 H 303.61760877774014 155.7806574688285 213.3720602890995 H 0.0 **** 0.06
25914 H 304.4220328297103 154.47764377799632 212.46392674229986 H 0.0 **** 0.06
25915 H 302.7294735965566 154.28765061227864 212.9825943747478 H 0.0 **** 0.06
25916 C 48.00778304350109 279.85747425041717 80.38831545889013 C 0.0 **** -0.24
25917 H 48.625932179370125 280.45037609120476 79.71507746419692 H 0.0 **** 0.06
25918 H 48.60847842541949 279.52657678439357 81.23675301368846 H 0.0 **** 0.06
25919 H 47.62042297542044 278.98914838211783 79.85619826323196 H 0.0 **** 0.06
25920 H 47.176697807348035 280.46446926827934 80.7473276149216 H 0.0 **** 0.06
25921 C 194.6938666212477 298.1514957589408 25.235017769889254 C 0.0 **** -0.24
25922 H 193.66433194124653 297.89631642267307 25.488369707131994 H 0.0 **** 0.06
25923 H 194.80911544828763 299.23547142485904 25.231438051104135 H 0.0 **** 0.06
25924 H 194.93333299477325 297.75578472406636 24.248034496164593 H 0.0 **** 0.06
25925 H 195.3672668526802 297.7165385938284 25.974570167950844 H 0.0 **** 0.06
25926 C 33.39165416844318 9.274945230265004 131.29416611038695 C 0.0 **** -0.24
25927 H 32.85312736624428 8.826275896380807 132.12784713700773 H 0.0 **** 0.06
25928 H 32.6787247385343 9.706441003407633 130.59129601044935 H 0.0 **** 0.06
25929 H 33.98213549895084 8.51029137546044 130.7888883321813 H 0.0 **** 0.06
25930 H 34.052125957408236 10.057065743063575 131.66734417151423 H 0.0 **** 0.06
25931 C 200.0160901144385 95.9814506915057 188.54989267277665 C 0.0 **** -0.24
25932 H 201.00100483491212 95.84799882095456 188.99614925443 H 0.0 **** 0.06
25933 H 200.12771561650692 96.29144632552772 187.51051554798585 H 0.0 **** 0.06
25934 H 199.4674252177329 96.74481707688537 189.10120559749151 H 0.0 **** 0.06
25935 H 199.46853450292366 95.0394456549603 188.5909866730849 H 0.0 **** 0.06
25936 C 169.14009646397062 199.757415673673 150.9075641175097 C 0.0 **** -0.24
25937 H 168.21360461930624 199.2365124275588 151.1472326713356 H 0.0 **** 0.06
25938 H 169.95823254553085 199.33128798073756 151.4879836985238 H 0.0 **** 0.06
25939 H 169.03515755078422 200.81541612731309 151.1495025769991 H 0.0 **** 0.06
25940 H 169.3541086424746 199.6479699290689 149.84406669412277 H 0.0 **** 0.06
25941 C 279.01607612913205 264.50731905223716 64.18159455942921 C 0.0 **** -0.24
25942 H 279.66804350482244 264.39992236626176 65.04880494064079 H 0.0 **** 0.06
25943 H 279.34433496751546 263.8278212542898 63.39521600779631 H 0.0 **** 0.06
25944 H 279.06049943466866 265.5334926142999 63.81860456731047 H 0.0 **** 0.06
25945 H 277.9917210943172 264.26631450758464 64.46597445103521 H 0.0 **** 0.06
25946 C 267.9099870040503 185.0443542639767 267.95685712418276 C 0.0 **** -0.24
25947 H 268.50147971649176 185.00051378773685 267.04236615451214 H 0.0 **** 0.06
25948 H 268.4412166828821 185.63249883992137 268.704145775982 H 0.0 **** 0.06
25949 H 267.7504252456244 184.0346176974644 268.3345388148909 H 0.0 **** 0.06
25950 H 266.9467889268829 185.5093277550685 267.7441896101874 H 0.0 **** 0.06
25951 C 312.54738430942393 213.226298541728 217.6453535586149 C 0.0 **** -0.24
25952 H 313.2716043829208 213.6399954522829 216.9445137085126 H 0.0 **** 0.06
25953 H 312.48888507961635 213.86437349719938 218.52728130078287 H 0.0 **** 0.06
25954 H 312.8586833526046 212.2242417659432 217.94053227396859 H 0.0 **** 0.06
25955 H 311.5684419644719 213.17628621353163 217.16759838425446 H 0.0 **** 0.06
25956 C 208.44787157742473 290.35663301447477 114.69402993493068 C 0.0 **** -0.24
25957 H 209.5253045792828 290.2595181795727 114.82323589558706 H 0.0 **** 0.06
25958 H 208.17391591648774 290.0549042150898 113.68280524182472 H 0.0 **** 0.06
25959 H 208.15420678492785 291.3934232290424 114.8570802002368 H 0.0 **** 0.06
25960 H 207.93666026241286 289.71769170572054 115.41524651313031 H 0.0 **** 0.06
25961 C 14.108908681419123 24.206357249591036 59.311510581532985 C 0.0 **** -0.24
25962 H 14.876989456913591 24.343705595480827 60.07260827831567 H 0.0 **** 0.06
25963 H 13.536517766840603 25.127643531704962 59.20186306136807 H 0.0 **** 0.06
25964 H 13.442552526707289 23.397214385461126 59.610101689123326 H 0.0 **** 0.06
25965 H 14.580838956813679 23.956319582308254 58.36114626637851 H 0.0 **** 0.06
25966 C 184.73146276478099 307.66744712283275 155.46886124445462 C 0.0 **** -0.24
25967 H 185.0312217603718 306.6512567085926 155.21224492068245 H 0.0 **** 0.06
25968 H 183.78311118984698 307.89948557700603 154.98382434099642 H 0.0 **** 0.06
25969 H 185.49413371767025 308.3675172805151 155.1285464790867 H 0.0 **** 0.06
25970 H 184.61881624226737 307.75016390549484 156.5493847472482 H 0.0 **** 0.06
25971 C 190.36343815732505 38.00946720335327 296.5322734230379 C 0.0 **** -0.24
25972 H 189.60405350215296 37.73090703431555 295.80159803145955 H 0.0 **** 0.06
25973 H 190.11260966955808 37.57308773571188 297.49948817852743 H 0.0 **** 0.06
25974 H 190.40218296174822 39.09501904421529 296.6209435389125 H 0.0 **** 0.06
25975 H 191.3344123172019 37.63694631173348 296.2056104210617 H 0.0 **** 0.06
25976 C 144.66602767622337 245.85746736204115 195.13388057142618 C 0.0 **** -0.24
25977 H 145.1425672082099 246.20074160888208 196.05147373315742 H 0.0 **** 0.06
25978 H 144.19950876213622 244.8876285037746 195.30702225387046 H 0.0 **** 0.06
25979 H 145.4150349477467 245.76662398608636 194.3474774074233 H 0.0 **** 0.06
25980 H 143.90528293985932 246.57662023870876 194.8296373501306 H 0.0 **** 0.06
25981 C 204.5359420780086 36.55794285043382 21.10232302851486 C 0.0 **** -0.24
25982 H 204.19649661902986 36.180374161596546 20.137403332943194 H 0.0 **** 0.06
25983 H 205.05273029771223 37.50638309404633 20.960645987982616 H 0.0 **** 0.06
25984 H 205.21591650355782 35.83667038273592 21.55496323341177 H 0.0 **** 0.06
25985 H 203.67611381500092 36.706177150585205 21.756261331403522 H 0.0 **** 0.06
25986 C 265.30625529733646 205.17377241845907 77.45452567377441 C 0.0 **** -0.24
25987 H 265.2103467469031 204.38860682484034 78.20343747332919 H 0.0 **** 0.06
25988 H 264.6834464592808 204.93192442756157 76.59323707468795 H 0.0 **** 0.06
25989 H 266.3480449070804 205.24970892177583 77.14008742098937 H 0.0 **** 0.06
25990 H 264.9856327327665 206.1234355690973 77.88133642294042 H 0.0 **** 0.06
25991 C 163.47107489101245 110.5230871519546 51.37631156877498 C 0.0 **** -0.24
25992 H 163.46681042434335 109.43517398294608 51.44444453782518 H 0.0 **** 0.06
25993 H 164.19634233897892 110.83677445171577 50.625377645061036 H 0.0 **** 0.06
25994 H 163.7432223367935 110.94531217136117 52.34397739613647 H 0.0 **** 0.06
25995 H 162.47910750223764 110.87253056498503 51.092881959942474 H 0.0 **** 0.06
25996 C 59.30130803456501 39.598061012840475 301.6239182426271 C 0.0 **** -0.24
25997 H 60.3780752361813 39.61515018566513 301.79015813035755 H 0.0 **** 0.06
25998 H 59.08616442105409 39.90539589677121 300.5998240814457 H 0.0 **** 0.06
25999 H 58.81614991527829 40.2844998316975 302.31811324326657 H 0.0 **** 0.06
26000 H 58.92438375375116 38.58847040483195 301.78716419267937 H 0.0 **** 0.06
26001 C 240.95838990933487 18.78046868592658 59.12488708962823 C 0.0 **** -0.24
26002 H 241.17524865224726 19.773699603628444 59.518401995288315 H 0.0 **** 0.06
26003 H 240.54674414150617 18.156940961676654 59.91942424752733 H 0.0 **** 0.06
26004 H 241.87660287229275 18.33026132368802 58.74815822971715 H 0.0 **** 0.06
26005 H 240.23468585177366 18.861885642758736 58.313863004718655 H 0.0 **** 0.06
26006 C 262.73305105089946 50.601596899263455 245.63052998265482 C 0.0 **** -0.24
26007 H 262.7631443829394 49.844962192500276 244.84579457067025 H 0.0 **** 0.06
26008 H 262.57706774087796 50.11873582052311 246.59520440207467 H 0.0 **** 0.06
26009 H 261.9160909289609 51.29565538615702 245.43499655176464 H 0.0 **** 0.06
26010 H 263.676628402191 51.14702689547934 245.64543807046243 H 0.0 **** 0.06
26011 C 311.35992769622425 263.37340004309635 169.16853767176838 C 0.0 **** -0.24
26012 H 311.1008966378029 262.78525050828284 168.28844768600578 H 0.0 **** 0.06
26013 H 310.68663295441536 263.11642959967907 169.98654728882133 H 0.0 **** 0.06
26014 H 311.2653548041649 264.4335653210744 168.93742537587002 H 0.0 **** 0.06
26015 H 312.38664132514805 263.154813088488 169.4610803433505 H 0.0 **** 0.06
26016 C 199.0061548559632 67.27580367857104 309.51981250729966 C 0.0 **** -0.24
26017 H 199.95340957144083 66.97165841087048 309.0754821053098 H 0.0 **** 0.06
26018 H 199.1681705700152 67.56783083478535 310.55700747198676 H 0.0 **** 0.06
26019 H 198.30292149080265 66.44306371094262 309.48144146981434 H 0.0 **** 0.06
26020 H 198.59964274937067 68.12028121137325 308.9629463155693 H 0.0 **** 0.06
26021 C 259.45147501094675 203.13431580385577 180.82219508164383 C 0.0 **** -0.24
26022 H 258.94180541637786 202.18028645840292 180.96327757577183 H 0.0 **** 0.06
26023 H 258.8015499452673 203.81450127225827 180.27195014866874 H 0.0 **** 0.06
26024 H 260.3713932823926 202.97520825728787 180.26018573176543 H 0.0 **** 0.06
26025 H 259.6894349266298 203.5655569814079 181.79513571715472 H 0.0 **** 0.06
26026 C 114.77681781192192 133.3168382865322 272.0129313309546 C 0.0 **** -0.24
26027 H 113.77822130096484 132.88687354441691 272.094941585686 H 0.0 **** 0.06
26028 H 115.48413269738731 132.7014021273205 272.57112426183147 H 0.0 **** 0.06
26029 H 114.77149307002679 134.32713728316097 272.42292759648547 H 0.0 **** 0.06
26030 H 115.07333261963888 133.3515844437795 270.965153674108 H 0.0 **** 0.06
26031 C 188.07318227622562 277.88233805841224 66.59519876686022 C 0.0 **** -0.24
26032 H 188.46996556934766 277.219910173771 67.36383760348392 H 0.0 **** 0.06
26033 H 188.02428942063517 278.90043795706526 66.98234788300022 H 0.0 **** 0.06
26034 H 187.07353711144884 277.5522129608456 66.31273405359087 H 0.0 **** 0.06
26035 H 188.7249370034707 277.8567911419671 65.72187552736591 H 0.0 **** 0.06
26036 C 152.8796267971457 63.56586401160098 238.01231834805347 C 0.0 **** -0.24
26037 H 153.39973612247388 63.22133211237821 238.90627774943192 H 0.0 **** 0.06
26038 H 152.10092198987468 62.85097084464053 237.74742416022377 H 0.0 **** 0.06
26039 H 153.5897334988657 63.65109974509892 237.1901932427839 H 0.0 **** 0.06
26040 H 152.4296691836497 64.53892057875521 238.2068958618591 H 0.0 **** 0.06
26041 C 189.66171999856124 281.0002373894748 209.53412275855842 C 0.0 **** -0.24
26042 H 189.81539806298503 280.37603120218455 210.41414323350847 H 0.0 **** 0.06
26043 H 188.7040429933806 280.75130124207664 209.07648873426209 H 0.0 **** 0.06
26044 H 190.46332243797417 280.82275063223636 208.817979389678 H 0.0 **** 0.06
26045 H 189.66215236653477 282.04957080506705 209.82856043368463 H 0.0 **** 0.06
26046 C 130.05506730956876 105.59473906821256 194.74907229042753 C 0.0 **** -0.24
26047 H 129.42692642095656 106.3815002387247 195.1680152924148 H 0.0 **** 0.06
26048 H 129.87287216213005 105.51698195918362 193.67645207915547 H 0.0 **** 0.06
26049 H 129.8150682987225 104.64539324025017 195.2283032634894 H 0.0 **** 0.06
26050 H 131.10321291062047 105.83546437420682 194.92376193339948 H 0.0 **** 0.06
26051 C 54.20510734139427 305.9932731492606 6.0429063183534595 C 0.0 **** -0.24
26052 H 54.56855193038493 305.4205689717947 6.895120668093625 H 0.0 **** 0.06
26053 H 54.975197962041534 306.6948051935442 5.7210545204617915 H 0.0 **** 0.06
26054 H 53.309485135131155 306.54436176893125 6.330211988537599 H 0.0 **** 0.06
26055 H 53.96634483327162 305.3146813845743 5.224514585892678 H 0.0 **** 0.06
26056 C 291.3213924670492 187.03023280622443 138.08322915758455 C 0.0 **** -0.24
26057 H 290.72677534446836 187.4577171762822 137.2762923955421 H 0.0 **** 0.06
26058 H 291.9547388394633 187.80489744933232 138.51720890345308 H 0.0 **** 0.06
26059 H 291.94634261747746 186.22826260025852 137.68920447296392 H 0.0 **** 0.06
26060 H 290.65878690259893 186.63091249419028 138.85054232739205 H 0.0 **** 0.06
26061 C 12.979907198905423 256.4690558288385 215.1514244071868 C 0.0 **** -0.24
26062 H 12.838344502390001 257.21456167576247 214.36836605103605 H 0.0 **** 0.06
26063 H 13.890272448862788 256.69583529084395 215.7075354961852 H 0.0 **** 0.06
26064 H 13.065603872884623 255.48033541260617 214.70097200430635 H 0.0 **** 0.06
26065 H 12.125870828394085 256.48761901001063 215.82831703915062 H 0.0 **** 0.06
26066 C 283.9469609455032 219.4934615110456 206.37359394234466 C 0.0 **** -0.24
26067 H 284.26619579662923 218.45393637213067 206.44789027513173 H 0.0 **** 0.06
26068 H 283.03342892380914 219.55194039021094 205.78068094510638 H 0.0 **** 0.06
26069 H 284.72969648123376 220.08131843163954 205.89362136572618 H 0.0 **** 0.06
26070 H 283.75696794895026 219.8874133904681 207.37214235339744 H 0.0 **** 0.06
26071 C 125.31639830337622 144.8929380793433 241.94906770147924 C 0.0 **** -0.24
26072 H 124.91682136093584 144.9798183290084 240.93928335138298 H 0.0 **** 0.06
26073 H 126.00111804667196 145.71923677866624 242.14098352706446 H 0.0 **** 0.06
26074 H 125.85076169448831 143.94834417955354 242.0479640023125 H 0.0 **** 0.06
26075 H 124.49783617971144 144.9240261161032 242.66799671922956 H 0.0 **** 0.06
26076 C 198.50778023078203 159.4829146494675 182.44612042159804 C 0.0 **** -0.24
26077 H 199.29527068918765 159.97179958622849 183.01979598073336 H 0.0 **** 0.06
26078 H 198.80388897961672 158.4577994248623 182.22367551891102 H 0.0 **** 0.06
26079 H 198.34615929994703 160.02562300628864 181.51561053079155 H 0.0 **** 0.06
26080 H 197.58565590769115 159.47654387616785 183.02762837319227 H 0.0 **** 0.06
26081 C 180.2395739967759 97.92774316831537 249.08298699945698 C 0.0 **** -0.24
26082 H 181.12752714600475 97.51779237451285 249.56397650073137 H 0.0 **** 0.06
26083 H 180.12846227283814 97.48707656570517 248.09081690676067 H 0.0 **** 0.06
26084 H 180.3428130733035 99.00823214223831 248.99094563145724 H 0.0 **** 0.06
26085 H 179.36066470652952 97.69522621776619 249.68430361928336 H 0.0 **** 0.06
26086 C 41.06229235454765 314.28395755271856 146.10625243951023 C 0.0 **** -0.24
26087 H 41.88128288687665 314.9617673586808 145.86468313940827 H 0.0 **** 0.06
26088 H 40.342612213243456 314.276659399682 145.28827103596808 H 0.0 **** 0.06
26089 H 40.571739160472674 314.6191217418023 147.01986990768413 H 0.0 **** 0.06
26090 H 41.4557876621526 313.2774004210341 146.25257242911005 H 0.0 **** 0.06
26091 C 153.00677625508996 225.41773919862254 246.9215678938346 C 0.0 **** -0.24
26092 H 153.43784412454738 225.38711714353667 247.92249453145428 H 0.0 **** 0.06
26093 H 153.52647787201334 224.70508464811763 246.2811109700893 H 0.0 **** 0.06
26094 H 153.1133715203158 226.42143524523095 246.5109000934097 H 0.0 **** 0.06
26095 H 151.94986649931474 225.15652054256867 246.97403628017537 H 0.0 **** 0.06
26096 C 146.38814959099074 302.26689096749504 261.0197933879602 C 0.0 **** -0.24
26097 H 145.29864431759958 302.281159424507 261.0464208093871 H 0.0 **** 0.06
26098 H 146.7314953311625 302.5417758782237 260.02266434076853 H 0.0 **** 0.06
26099 H 146.7438500491855 301.26570114252377 261.2643224681094 H 0.0 **** 0.06
26100 H 146.7781711557139 302.9787911418758 261.7479545482599 H 0.0 **** 0.06
26101 C 155.69372787915802 289.245966028098 308.39227246785276 C 0.0 **** -0.24
26102 H 154.7679596428601 289.78005917317415 308.6086888250222 H 0.0 **** 0.06
26103 H 156.20981138901237 289.0209904294088 309.3254499104241 H 0.0 **** 0.06
26104 H 156.33222639899606 289.86701606658283 307.7632964398356 H 0.0 **** 0.06
26105 H 155.4626252606207 288.31704386529077 307.87055458733016 H 0.0 **** 0.06
26106 C 37.679395130612164 162.0336639462588 97.31010311229616 C 0.0 **** -0.24
26107 H 37.91337890789973 161.3814820397672 98.15130742814637 H 0.0 **** 0.06
26108 H 37.55477595674367 163.05640260477918 97.66672483137575 H 0.0 **** 0.06
26109 H 36.75601874425317 161.69867565963762 96.83679005487821 H 0.0 **** 0.06
26110 H 38.492387962576714 161.99669855883826 96.5854883442698 H 0.0 **** 0.06
26111 C 288.81092658532657 311.29030194170804 307.24397497870825 C 0.0 **** -0.24
26112 H 289.2585296329759 311.8821632929397 308.04313016262137 H 0.0 **** 0.06
26113 H 289.5834872387701 310.6937376607766 306.75795805592503 H 0.0 **** 0.06
26114 H 288.3524617457949 311.9559128659872 306.5129493730069 H 0.0 **** 0.06
26115 H 288.050656008052 310.63027626570744 307.66228838833496 H 0.0 **** 0.06
26116 C 274.285372215586 286.489751236594 204.47348366448415 C 0.0 **** -0.24
26117 H 274.2002654391558 287.4281364670285 205.0213206339348 H 0.0 **** 0.06
26118 H 274.8066599832383 285.7559817488768 205.08919200235528 H 0.0 **** 0.06
26119 H 274.84532291587925 286.6563446228175 203.55387439865905 H 0.0 **** 0.06
26120 H 273.2892604985316 286.1191890883243 204.2303098706738 H 0.0 **** 0.06
26121 C 116.47848369254527 199.78294787035242 127.42775880691764 C 0.0 **** -0.24
26122 H 116.85787056185316 200.74349008056555 127.07885249187348 H 0.0 **** 0.06
26123 H 117.23973189306346 199.28962604110615 128.0316570578576 H 0.0 **** 0.06
26124 H 116.23246932675298 199.15653097239817 126.57036615972703 H 0.0 **** 0.06
26125 H 115.58382068452642 199.94256981282234 128.02925551155624 H 0.0 **** 0.06
26126 C 15.985918390296945 173.51208166840502 17.658074246092625 C 0.0 **** -0.24
26127 H 15.051072681244776 173.65585519784338 18.199370856298586 H 0.0 **** 0.06
26128 H 15.829307698586192 173.72388403930478 16.60004768686146 H 0.0 **** 0.06
26129 H 16.31968058820857 172.4815128826561 17.777326588504607 H 0.0 **** 0.06
26130 H 16.743650951739525 174.1884855821848 18.055638666106262 H 0.0 **** 0.06
26131 C 39.63341273328575 267.5287170060746 218.71174105947355 C 0.0 **** -0.24
26132 H 39.14252974199343 266.80737318964793 218.05904792043955 H 0.0 **** 0.06
26133 H 38.918533915054354 267.8984595720281 219.44754950257465 H 0.0 **** 0.06
26134 H 40.00473058880749 268.36287795661366 218.11559769320382 H 0.0 **** 0.06
26135 H 40.46661563136007 267.0473621739893 219.2233520486899 H 0.0 **** 0.06
26136 C 282.22887387633637 232.82125206060374 157.27402353055385 C 0.0 **** -0.24
26137 H 282.27951656362296 232.97143614562458 156.19588745099463 H 0.0 **** 0.06
26138 H 282.2037785393791 233.7901296462798 157.77434523212344 H 0.0 **** 0.06
26139 H 283.10540542890965 232.26444412266446 157.6046663976676 H 0.0 **** 0.06
26140 H 281.3275932751295 232.26046700335448 157.52074147758384 H 0.0 **** 0.06
26141 C 35.424654976812576 126.05676426178277 39.519708422611586 C 0.0 **** -0.24
26142 H 35.56494966898896 127.13732770995631 39.48101233897452 H 0.0 **** 0.06
26143 H 36.31742047627671 125.59067617968395 39.93639896932308 H 0.0 **** 0.06
26144 H 35.25308229215625 125.67750413578031 38.51191681502391 H 0.0 **** 0.06
26145 H 34.565276987184575 125.82436643133354 40.14713655454716 H 0.0 **** 0.06
26146 C 57.577990188932176 122.40851825884229 211.3028990081733 C 0.0 **** -0.24
26147 H 58.048656406760756 122.14187126579736 212.24843115248873 H 0.0 **** 0.06
26148 H 56.49363000427286 122.39148288476534 211.41874434646255 H 0.0 **** 0.06
26149 H 57.872815472047535 121.69105074139415 210.53616713173636 H 0.0 **** 0.06
26150 H 57.89718196401401 123.40770860502053 211.0072258594153 H 0.0 **** 0.06
26151 C 25.703412083425064 67.36642469311963 51.83383250263631 C 0.0 **** -0.24
26152 H 26.432171392202747 67.64782579741473 51.07437438424603 H 0.0 **** 0.06
26153 H 25.916169878103517 66.35528454153086 52.18347528144912 H 0.0 **** 0.06
26154 H 24.70090880508934 67.39922670970233 51.405375315033126 H 0.0 **** 0.06
26155 H 25.763737137063032 68.06066493529164 52.67096912013466 H 0.0 **** 0.06
26156 C 178.24762796704874 70.7927085142689 271.5400324650104 C 0.0 **** -0.24
26157 H 177.7247137106175 69.8397076570188 271.62597081875106 H 0.0 **** 0.06
26158 H 178.63544737850452 71.08271396265502 272.5166855738971 H 0.0 **** 0.06
26159 H 177.55524318534077 71.55535542182926 271.18275895500597 H 0.0 **** 0.06
26160 H 179.07281896294052 70.69230069494648 270.83515060323555 H 0.0 **** 0.06
26161 C 0.8339934444248911 29.05661136852163 194.07618056504975 C 0.0 **** -0.24
26162 H 1.6531291327997621 29.74250047314493 194.2908622072256 H 0.0 **** 0.06
26163 H 0.06265822413759281 29.163395277437644 194.83916387187378 H 0.0 **** 0.06
26164 H 1.2082211540649297 28.032689689348842 194.0782705022853 H 0.0 **** 0.06
26165 H 0.4140497911078711 29.28787183064739 193.09833739397305 H 0.0 **** 0.06
26166 C 146.41322655334352 244.60466582370958 216.34484953532822 C 0.0 **** -0.24
26167 H 145.84324342043644 243.68488635554434 216.48244428726824 H 0.0 **** 0.06
26168 H 146.87584986172558 244.88933786369577 217.29022134430738 H 0.0 **** 0.06
26169 H 145.74530642367657 245.3993186789869 216.01297924704983 H 0.0 **** 0.06
26170 H 147.18758222052497 244.44347259274116 215.59494928043074 H 0.0 **** 0.06
26171 C 271.70885764122875 8.680784676515287 271.86930138665014 C 0.0 **** -0.24
26172 H 270.7529708300518 8.158574259617083 271.81320289066093 H 0.0 **** 0.06
26173 H 272.4595181517477 8.12447294293834 271.3068456919484 H 0.0 **** 0.06
26174 H 272.01940779957914 8.757257874957048 272.91150184753616 H 0.0 **** 0.06
26175 H 271.60199548077486 9.679125664712188 271.44659570422425 H 0.0 **** 0.06
26176 C 260.74590021185486 163.14461487957544 175.03929854773128 C 0.0 **** -0.24
26177 H 261.0639049267432 163.3315101645423 176.06406412831387 H 0.0 **** 0.06
26178 H 261.3937347967522 162.39218689650926 174.58904436069884 H 0.0 **** 0.06
26179 H 260.8084444354228 164.0695169825239 174.46533803246825 H 0.0 **** 0.06
26180 H 259.7162856885666 162.78593828025623 175.03867934181858 H 0.0 **** 0.06
26181 C 173.786043115503 303.7559630517739 140.30235774864892 C 0.0 **** -0.24
26182 H 173.57967426090903 304.0407386408147 141.33414944781987 H 0.0 **** 0.06
26183 H 174.30235043042074 302.79553209341594 140.28606400836375 H 0.0 **** 0.06
26184 H 174.41495513365476 304.514388948445 139.83511992173715 H 0.0 **** 0.06
26185 H 172.8478872448008 303.6737274018708 139.7529879161929 H 0.0 **** 0.06
26186 C 198.40000737507006 174.61341135201093 42.89050172437953 C 0.0 **** -0.24
26187 H 197.79609571440199 174.05197460900814 42.17708750868161 H 0.0 **** 0.06
26188 H 198.8727586076053 175.45503782528021 42.38243331368534 H 0.0 **** 0.06
26189 H 199.16790577796212 173.9623699068103 43.30787856575293 H 0.0 **** 0.06
26190 H 197.76271873130833 174.98460704185806 43.693001751503004 H 0.0 **** 0.06
26191 C 247.1443243234834 86.12187804426603 136.70449234574423 C 0.0 **** -0.24
26192 H 246.69149882445214 86.7107691967179 137.50294061182666 H 0.0 **** 0.06
26193 H 246.36182134144195 85.61220051912454 136.1415560639577 H 0.0 **** 0.06
26194 H 247.82055685062608 85.38441579808259 137.13588352639474 H 0.0 **** 0.06
26195 H 247.70155643249507 86.78099157860325 136.03892260885289 H 0.0 **** 0.06
26196 C 206.57394035870482 129.0727519325138 166.85055397522018 C 0.0 **** -0.24
26197 H 206.4783506760901 128.0136138590746 166.61219604643964 H 0.0 **** 0.06
26198 H 206.2636941319779 129.2425499106975 167.88190468101647 H 0.0 **** 0.06
26199 H 205.942210501693 129.6539307020711 166.179320057437 H 0.0 **** 0.06
26200 H 207.61303077111393 129.37945728632315 166.72804971490189 H 0.0 **** 0.06
26201 C 305.9651377285405 273.5724675522961 247.85468971991313 C 0.0 **** -0.24
26202 H 305.98059892279804 272.94686655085184 248.74776961184935 H 0.0 **** 0.06
26203 H 306.2077125528362 272.96590098317 246.98231319544414 H 0.0 **** 0.06
26204 H 306.69988477881463 274.3705416397155 247.95864581979436 H 0.0 **** 0.06
26205 H 304.9726012464681 274.0054832271029 247.7329929488325 H 0.0 **** 0.06
26206 C 205.62118615389585 3.6252341289205674 52.03093401797594 C 0.0 **** -0.24
26207 H 205.90466231421925 2.775208647270688 52.65130269503075 H 0.0 **** 0.06
26208 H 204.76963971059138 3.351524195647869 51.4077351101474 H 0.0 **** 0.06
26209 H 206.46114551206733 3.907391231253939 51.396953741043404 H 0.0 **** 0.06
26210 H 205.34894349495465 4.466269430898308 52.6698846519686 H 0.0 **** 0.06
26211 C 158.88485567299648 273.6364489263447 225.185682029061 C 0.0 **** -0.24
26212 H 159.13951953814848 272.6692837895571 224.75288616317076 H 0.0 **** 0.06
26213 H 159.77674958241226 274.261564356307 225.22974225925324 H 0.0 **** 0.06
26214 H 158.49245942605842 273.49081733421497 226.19286224204495 H 0.0 **** 0.06
26215 H 158.12931283069736 274.1223507030611 224.56819937557856 H 0.0 **** 0.06
26216 C 170.08738422151663 190.99288078444914 156.40228909798935 C 0.0 **** -0.24
26217 H 170.55063604073206 191.97720519460086 156.4775324516433 H 0.0 **** 0.06
26218 H 169.3296139270724 190.8882243957953 157.17785957492913 H 0.0 **** 0.06
26219 H 170.84868533301608 190.22305999367296 156.53061259629374 H 0.0 **** 0.06
26220 H 169.62282876451707 190.88538697919108 155.42244387742312 H 0.0 **** 0.06
26221 C 294.71510255008286 298.5992323862307 47.88639642195042 C 0.0 **** -0.24
26222 H 295.6579923477692 299.1437795227132 47.93416246000808 H 0.0 **** 0.06
26223 H 294.9150484276979 297.52805090650145 47.86416508033935 H 0.0 **** 0.06
26224 H 294.17447894281213 298.88715229867347 46.98459955424485 H 0.0 **** 0.06
26225 H 294.11301378389095 298.838685176389 48.763321636664784 H 0.0 **** 0.06
26226 C 162.650825445799 101.19941939970926 205.22050775087814 C 0.0 **** -0.24
26227 H 162.13377668594285 101.83605941638467 204.5025353146496 H 0.0 **** 0.06
26228 H 163.7267601198389 101.28248192673527 205.07086972613735 H 0.0 **** 0.06
26229 H 162.34235738095418 100.16418684599168 205.07479789334792 H 0.0 **** 0.06
26230 H 162.3981954105779 101.51418725963188 206.23310323292975 H 0.0 **** 0.06
26231 C 90.04303276784248 138.05346487460025 91.0939567176494 C 0.0 **** -0.24
26232 H 91.05280129595693 138.1669145971936 90.70111702481262 H 0.0 **** 0.06
26233 H 89.32258827984157 138.17320162825817 90.28492878328791 H 0.0 **** 0.06
26234 H 89.8630160723192 138.8120417968597 91.85629548509809 H 0.0 **** 0.06
26235 H 89.93426593611355 137.06311614763055 91.53513074389289 H 0.0 **** 0.06
26236 C 78.05568218323609 193.55349870220164 45.23549238141351 C 0.0 **** -0.24
26237 H 77.60577740452706 193.14957446577597 46.14285793882206 H 0.0 **** 0.06
26238 H 78.7932498341076 192.84914062857143 44.85134525776439 H 0.0 **** 0.06
26239 H 78.54187660332249 194.50134591858273 45.46258043131513 H 0.0 **** 0.06
26240 H 77.28001506828707 193.7124905456937 44.48598689570622 H 0.0 **** 0.06
26241 C 262.045351505679 293.3753730036256 162.80260592711323 C 0.0 **** -0.24
26242 H 262.45609225681994 292.76168017988124 161.9997612899566 H 0.0 **** 0.06
26243 H 262.25957863995194 292.90634230994795 163.76324180817386 H 0.0 **** 0.06
26244 H 260.967386164962 293.46638503809305 162.67479795750978 H 0.0 **** 0.06
26245 H 262.5001446721999 294.3654460926963 162.77117658133204 H 0.0 **** 0.06
26246 C 59.516154846665216 211.23906418543712 4.064566871911154 C 0.0 **** -0.24
26247 H 59.544079774990536 212.19793535057966 3.547160227025941 H 0.0 **** 0.06
26248 H 60.183778954554896 211.27250176068318 4.926819931665051 H 0.0 **** 0.06
26249 H 59.83854571922657 210.45037729507646 3.3851851959793464 H 0.0 **** 0.06
26250 H 58.49936982160557 211.03694420112228 4.400654766220811 H 0.0 **** 0.06
26251 C 200.04700455336075 264.2549933245847 84.11510273189239 C 0.0 **** -0.24
26252 H 200.2094356566559 263.9377639610747 83.0853765478112 H 0.0 **** 0.06
26253 H 199.07099434924947 264.7335484319955 84.19865177608128 H 0.0 **** 0.06
26254 H 200.8248287734413 264.96184649077725 84.40419516451382 H 0.0 **** 0.06
26255 H 200.08380008387314 263.38560123764603 84.7715201584929 H 0.0 **** 0.06
26256 C 164.48920475432567 16.76206865877225 123.49449999231277 C 0.0 **** -0.24
26257 H 164.38000621026077 17.84128162832286 123.59910588057798 H 0.0 **** 0.06
26258 H 163.89566804824346 16.260535712533624 124.25877561770764 H 0.0 **** 0.06
26259 H 165.5389967809573 16.490647242270597 123.61190728253604 H 0.0 **** 0.06
26260 H 164.14429684160757 16.457024913132898 122.5068304158658 H 0.0 **** 0.06
26261 C 71.3449109420244 97.47457487960958 44.26640339353389 C 0.0 **** -0.24
26262 H 72.02857449313754 97.60460481803406 43.4275668699793 H 0.0 **** 0.06
26263 H 70.59903280588816 96.7206236513326 44.013647179216235 H 0.0 **** 0.06
26264 H 70.84766878390502 98.42066886935939 44.47967258364537 H 0.0 **** 0.06
26265 H 71.90494037601891 97.1522317703612 45.14392507450782 H 0.0 **** 0.06
26266 C 226.1155201219051 280.9324442489973 57.18617345220477 C 0.0 **** -0.24
26267 H 225.55667240681373 279.9968887050998 57.18955032016578 H 0.0 **** 0.06
26268 H 226.8715011460739 280.90159159380164 56.400863220819474 H 0.0 **** 0.06
26269 H 226.60027983131664 281.0692262539808 58.15252383101517 H 0.0 **** 0.06
26270 H 225.43270514499238 281.76243112104675 57.00033519876763 H 0.0 **** 0.06
26271 C 310.27768096122486 252.64171246665262 232.139345253921 C 0.0 **** -0.24
26272 H 310.829896698086 252.06596643211412 231.39650433270737 H 0.0 **** 0.06
26273 H 310.8217412467294 252.63278796912698 233.0839791038473 H 0.0 **** 0.06
26274 H 309.2923923856435 252.19924654928715 232.28297213395734 H 0.0 **** 0.06
26275 H 310.16713347315317 253.6696620066452 231.79354423057293 H 0.0 **** 0.06
26276 C 29.63835304362192 18.907619131943534 51.902473417414484 C 0.0 **** -0.24
26277 H 29.43051498100874 17.885890415768245 51.58512168979303 H 0.0 **** 0.06
26278 H 30.6306506447537 18.953428867220623 52.350983493150125 H 0.0 **** 0.06
26279 H 28.89342822120409 19.219057732797182 52.63443335815512 H 0.0 **** 0.06
26280 H 29.59970049505438 19.571458955965056 51.03845430813902 H 0.0 **** 0.06
26281 C 209.30886293958002 70.76196003778458 46.93128061210723 C 0.0 **** -0.24
26282 H 208.6996134375596 69.8892751573583 46.69783792126441 H 0.0 **** 0.06
26283 H 210.077288247309 70.88342001367974 46.16749898569532 H 0.0 **** 0.06
26284 H 209.78098566332483 70.62621080191158 47.903457355918704 H 0.0 **** 0.06
26285 H 208.67724470579583 71.65067697423083 46.95390734032105 H 0.0 **** 0.06
26286 C 170.2426530117708 231.92145435672907 149.54133643421062 C 0.0 **** -0.24
26287 H 169.35818327378774 232.50040121047763 149.80900820639562 H 0.0 **** 0.06
26288 H 170.92025503015975 232.54441113380622 148.95733325844293 H 0.0 **** 0.06
26289 H 169.9440532512766 231.0557751736009 148.9500301807886 H 0.0 **** 0.06
26290 H 170.74534641604464 231.5867623168843 150.4479961959854 H 0.0 **** 0.06
26291 C 280.20294930336416 249.46752936450062 212.00337890183698 C 0.0 **** -0.24
26292 H 280.3723552650014 248.7755740778206 212.82892711697474 H 0.0 **** 0.06
26293 H 280.5356930640331 250.4643552157305 212.2918579474126 H 0.0 **** 0.06
26294 H 279.14008353068897 249.49446930848316 211.7637626724461 H 0.0 **** 0.06
26295 H 280.76455444673826 249.13454008838792 211.13031695858865 H 0.0 **** 0.06
26296 C 150.3585223434696 198.7936076214839 136.96020963547232 C 0.0 **** -0.24
26297 H 149.35765588627953 198.5095093608865 136.63335053975706 H 0.0 **** 0.06
26298 H 150.63478330873227 198.20619713687483 137.83579409810886 H 0.0 **** 0.06
26299 H 150.369303344299 199.85263285062808 137.2140199482026 H 0.0 **** 0.06
26300 H 151.06938313349377 198.60522563065933 136.15556032462877 H 0.0 **** 0.06
26301 C 240.14405518633342 7.948609155601972 233.46145469942297 C 0.0 **** -0.24
26302 H 239.413169865858 8.317667943330832 234.18097440691722 H 0.0 **** 0.06
26303 H 239.6272624415708 7.586389959599188 232.57268427724125 H 0.0 **** 0.06
26304 H 240.7137494068852 7.133794251896617 233.90832774405277 H 0.0 **** 0.06
26305 H 240.82146895755548 8.756081419948373 233.1850248326164 H 0.0 **** 0.06
26306 C 28.276793243543437 75.16027878746499 86.95865911910087 C 0.0 **** -0.24
26307 H 28.527842606445773 76.1338476116405 87.38007970891496 H 0.0 **** 0.06
26308 H 28.608066414574495 74.37441540225251 87.63772036628825 H 0.0 **** 0.06
26309 H 28.775342171331744 75.04291247805915 85.9959439635852 H 0.0 **** 0.06
26310 H 27.198267230535237 75.09169148951588 86.82023669614478 H 0.0 **** 0.06
26311 C 120.2979437516957 149.7001427505703 295.0748640787594 C 0.0 **** -0.24
26312 H 120.56115268714973 148.96993930201126 294.3103280593673 H 0.0 **** 0.06
26313 H 119.21394443845335 149.8092297122153 295.1151117588855 H 0.0 **** 0.06
26314 H 120.75202060020467 150.66123230925763 294.83032485313686 H 0.0 **** 0.06
26315 H 120.66574776561649 149.3610698874412 296.0437134759585 H 0.0 **** 0.06
26316 C 10.825348283298524 68.13713936188276 145.74054608467003 C 0.0 **** -0.24
26317 H 11.762957650209898 67.58279584620192 145.7578459506292 H 0.0 **** 0.06
26318 H 10.94952183228537 69.04226287687837 145.1454135736749 H 0.0 **** 0.06
26319 H 10.543065013257262 68.40584423301223 146.75815268572305 H 0.0 **** 0.06
26320 H 10.044810469159756 67.51639738384429 145.2992417987441 H 0.0 **** 0.06
26321 C 15.765162075695642 87.40633214403832 63.5407123022876 C 0.0 **** -0.24
26322 H 15.207402363392248 87.99093850352975 64.27217375498807 H 0.0 **** 0.06
26323 H 15.154230946588953 86.56954324294816 63.2014648374209 H 0.0 **** 0.06
26324 H 16.678193224898905 87.02755322588331 63.99965347498156 H 0.0 **** 0.06
26325 H 16.0211610559938 88.03808483600855 62.69067912401306 H 0.0 **** 0.06
26326 C 272.222352613252 152.940989291959 266.2170878154087 C 0.0 **** -0.24
26327 H 272.7913861826447 153.49189687457425 265.46821066772657 H 0.0 **** 0.06
26328 H 271.3610026621461 153.53268257963202 266.5273871320856 H 0.0 **** 0.06
26329 H 272.85642242597874 152.74249862618916 267.0815751092363 H 0.0 **** 0.06
26330 H 271.88136554768835 151.9970463469187 265.7923550926893 H 0.0 **** 0.06
26331 C 256.05336054984116 191.47639163900516 58.23635955807845 C 0.0 **** -0.24
26332 H 257.07185324937694 191.82244056681628 58.055116299700785 H 0.0 **** 0.06
26333 H 255.81787626253757 191.583808771642 59.29561734734173 H 0.0 **** 0.06
26334 H 255.96933338655185 190.4289005307303 57.94941678112579 H 0.0 **** 0.06
26335 H 255.35707481626235 192.07287527327054 57.647208644117114 H 0.0 **** 0.06
26336 C 138.3166856325363 13.857523667542594 308.2626502767612 C 0.0 **** -0.24
26337 H 138.3787865948039 13.315833190606227 309.2064756035951 H 0.0 **** 0.06
26338 H 139.2952539058512 14.274329296800417 308.0196676395163 H 0.0 **** 0.06
26339 H 137.59085832040577 14.664923159241667 308.3549114267014 H 0.0 **** 0.06
26340 H 138.0054896245209 13.17613050008184 307.47227584926 H 0.0 **** 0.06
26341 C 80.17933460857242 273.2259065471069 245.90973155371265 C 0.0 **** -0.24
26342 H 79.36710942621903 272.8174144383754 246.51213906226155 H 0.0 **** 0.06
26343 H 79.76816616761639 273.6889562201316 245.01276563292515 H 0.0 **** 0.06
26344 H 80.85951412409193 272.4221190022464 245.62525349429794 H 0.0 **** 0.06
26345 H 80.72145872555365 273.97245711585055 246.4895634578541 H 0.0 **** 0.06
26346 C 166.6824940305056 274.3747933403663 28.21699576177633 C 0.0 **** -0.24
26347 H 165.65955998234466 274.39514987339714 27.842533627789578 H 0.0 **** 0.06
26348 H 167.3702079670067 274.6307332445923 27.410708183459718 H 0.0 **** 0.06
26349 H 166.91323341656096 273.375147203173 28.587765629239016 H 0.0 **** 0.06
26350 H 166.7867391370242 275.09583296371454 29.02775538659904 H 0.0 **** 0.06
26351 C 3.2824662027372113 182.96859999744902 163.26405845321096 C 0.0 **** -0.24
26352 H 3.6311855295218294 182.46141729101942 162.36504795345587 H 0.0 **** 0.06
26353 H 4.126474170719149 183.44471530098855 163.762928292725 H 0.0 **** 0.06
26354 H 2.8236214216505857 182.24360780967277 163.93645576524477 H 0.0 **** 0.06
26355 H 2.5478051899938947 183.72647440131124 162.99035251908202 H 0.0 **** 0.06
26356 C 296.24187213826036 312.2034479262558 18.941272312688966 C 0.0 **** -0.24
26357 H 295.16670203861463 312.3483309925606 19.038932420913227 H 0.0 **** 0.06
26358 H 296.7642880199039 313.0547990337052 19.378203990130146 H 0.0 **** 0.06
26359 H 296.50185137689533 312.1207456617824 17.8853374250956 H 0.0 **** 0.06
26360 H 296.5348469758358 311.29077281272293 19.46032937333092 H 0.0 **** 0.06
26361 C 251.99953128350694 49.743548499457916 134.58106677093085 C 0.0 **** -0.24
26362 H 252.21783518685493 50.14330681408342 135.5716075565662 H 0.0 **** 0.06
26363 H 252.91139944243565 49.732485986434426 133.9847401594533 H 0.0 **** 0.06
26364 H 251.25237581663163 50.36907301009683 134.09324288661279 H 0.0 **** 0.06
26365 H 251.615504511447 48.72803041998225 134.67718554144307 H 0.0 **** 0.06
26366 C 218.88837712842587 152.3142407640591 15.700132651632373 C 0.0 **** -0.24
26367 H 219.53090048383268 152.20504143737764 16.574067773163506 H 0.0 **** 0.06
26368 H 218.77962496849443 153.37201373971027 15.459914727566229 H 0.0 **** 0.06
26369 H 217.90874568512183 151.88684929814679 15.913866410642356 H 0.0 **** 0.06
26370 H 219.33554019427157 151.7935140707824 14.852990245444971 H 0.0 **** 0.06
26371 C 3.1225601796068077 204.55119424591942 80.83556212688643 C 0.0 **** -0.24
26372 H 3.034871093608814 205.59751776983205 80.54464967787999 H 0.0 **** 0.06
26373 H 3.357200643734558 203.9482787541299 79.95764065105266 H 0.0 **** 0.06
26374 H 2.1794917111870404 204.21400292947123 81.26639066884775 H 0.0 **** 0.06
26375 H 3.917679804512204 204.44490659970245 81.57356149580994 H 0.0 **** 0.06
26376 C 33.45171447961468 198.98996837749763 120.36549537931182 C 0.0 **** -0.24
26377 H 32.91439755643296 198.20193527657324 120.89297021766794 H 0.0 **** 0.06
26378 H 34.14971990537714 199.47394763907545 121.04954132484573 H 0.0 **** 0.06
26379 H 32.740784223078435 199.72625743278974 119.99058746084961 H 0.0 **** 0.06
26380 H 34.00249473888334 198.55810450188352 119.5296389019384 H 0.0 **** 0.06
26381 C 175.71545811791674 157.76185629999577 203.59569401518115 C 0.0 **** -0.24
26382 H 176.18181252441212 157.0069301091644 204.22848731685355 H 0.0 **** 0.06
26383 H 174.6424851393038 157.7819242514779 203.78433020106684 H 0.0 **** 0.06
26384 H 175.89724268239547 157.51910171063577 202.54859758567648 H 0.0 **** 0.06
26385 H 176.1431438866593 158.7381090776359 203.82149424150595 H 0.0 **** 0.06
26386 C 14.769981110098186 260.08424009003073 120.63083644227311 C 0.0 **** -0.24
26387 H 15.696385525980673 260.41830857851556 120.16471258678521 H 0.0 **** 0.06
26388 H 14.798246352269118 260.30827389738846 121.69769551639297 H 0.0 **** 0.06
26389 H 14.658520438042345 259.0100013738946 120.48751148244176 H 0.0 **** 0.06
26390 H 13.926374166092799 260.6017332747642 120.17339739659258 H 0.0 **** 0.06
26391 C 132.43752903227286 148.87690184498422 0.8043998924886182 C 0.0 **** -0.24
26392 H 131.46855377149276 148.7538572115736 1.290491779064098 H 0.0 **** 0.06
26393 H 132.88047744381961 149.82338714182106 1.1143170385915937 H 0.0 **** 0.06
26394 H 132.302928904811 148.87443102128208 -0.2771610395606672 H 0.0 **** 0.06
26395 H 133.09411485884576 148.0560829250689 1.0907557852985406 H 0.0 **** 0.06
26396 C 195.35786421515007 59.939867967485725 170.4267697418448 C 0.0 **** -0.24
26397 H 194.88562936246228 59.652839220918025 171.3656505047881 H 0.0 **** 0.06
26398 H 196.43201604229586 59.764672335445994 170.49276743928266 H 0.0 **** 0.06
26399 H 195.173875640478 60.997056453266055 170.2358795662828 H 0.0 **** 0.06
26400 H 194.94218381300834 59.34587247865687 169.6128726278135 H 0.0 **** 0.06
26401 C 215.2977479551971 74.48363239755102 115.07176957325538 C 0.0 **** -0.24
26402 H 214.6407709560223 74.18517995603369 114.25469937215766 H 0.0 **** 0.06
26403 H 215.328891008565 75.57138934332667 115.13261598741636 H 0.0 **** 0.06
26404 H 216.3018492838496 74.1011377746378 114.88780833723882 H 0.0 **** 0.06
26405 H 214.9199131206296 74.07711456182432 116.00917473157764 H 0.0 **** 0.06
26406 C 270.92745588301557 9.887145871898781 74.83636029045061 C 0.0 **** -0.24
26407 H 271.61767874239416 9.332182331825038 75.47250746516897 H 0.0 **** 0.06
26408 H 270.3364771570255 10.5672524877412 75.44960615094627 H 0.0 **** 0.06
26409 H 270.26412508516995 9.189380909963177 74.32511410595762 H 0.0 **** 0.06
26410 H 271.4917587615051 10.458481587437234 74.10028685324949 H 0.0 **** 0.06
26411 C 175.12575631408316 168.73025855164013 17.414894920336423 C 0.0 **** -0.24
26412 H 175.7037358393477 168.62143462572857 16.497540371378847 H 0.0 **** 0.06
26413 H 175.29449205915063 169.72292431449284 17.833430803758276 H 0.0 **** 0.06
26414 H 175.44001595404484 167.97371763171486 18.133752391648684 H 0.0 **** 0.06
26415 H 174.0662696568142 168.60424195666042 17.193790449341904 H 0.0 **** 0.06
26416 C 45.5330408277747 80.60444301300132 111.65032892367171 C 0.0 **** -0.24
26417 H 46.5605103977839 80.2616076498465 111.7717725149316 H 0.0 **** 0.06
26418 H 45.472181928489135 81.66368399003125 111.90304834016678 H 0.0 **** 0.06
26419 H 44.87971563324891 80.03479854924791 112.31130829218029 H 0.0 **** 0.06
26420 H 45.220755178044215 80.45823520203817 110.61710857376752 H 0.0 **** 0.06
26421 C 8.6280977737717 60.378770324758165 123.04233683019095 C 0.0 **** -0.24
26422 H 9.330394198243312 60.55764540216194 122.22849729667232 H 0.0 **** 0.06
26423 H 8.745695281177234 59.358138728175874 123.40634413764093 H 0.0 **** 0.06
26424 H 7.610117553065393 60.52156994994806 122.68134945892098 H 0.0 **** 0.06
26425 H 8.82715200095511 61.07987176879624 123.85383762312975 H 0.0 **** 0.06
26426 C 81.6615107707139 219.31980379708773 196.36776359418445 C 0.0 **** -0.24
26427 H 82.08191925598888 218.3308501907258 196.18587676453097 H 0.0 **** 0.06
26428 H 80.58172139194596 219.2378191529543 196.49223755061087 H 0.0 **** 0.06
26429 H 81.88110987552571 219.96877022618938 195.51952414652908 H 0.0 **** 0.06
26430 H 82.10081047664431 219.74184767355518 197.27123361655322 H 0.0 **** 0.06
26431 C 94.88705346231396 273.6824473441749 34.873935290730856 C 0.0 **** -0.24
26432 H 94.232575669791 274.16194366919126 35.602373652457004 H 0.0 **** 0.06
26433 H 94.33463474056478 273.503097683865 33.95176795046609 H 0.0 **** 0.06
26434 H 95.24343005167279 272.73381523323104 35.27507889759477 H 0.0 **** 0.06
26435 H 95.73793651380038 274.3313671479905 34.668157575993746 H 0.0 **** 0.06
26436 C 231.37295475859133 1.789958431080322 247.95054175614743 C 0.0 **** -0.24
26437 H 230.35196739208874 2.1498440588177345 248.080793381532 H 0.0 **** 0.06
26438 H 232.00757189875168 2.6113297819904915 247.61772868625124 H 0.0 **** 0.06
26439 H 231.38619862557056 0.9952962688104776 247.20458197314204 H 0.0 **** 0.06
26440 H 231.74522181556682 1.4041212506397187 248.8998921978704 H 0.0 **** 0.06
26441 C 149.37687955807576 300.2032599107365 162.87484739683998 C 0.0 **** -0.24
26442 H 149.95787627137776 299.3512308710356 163.22671339556433 H 0.0 **** 0.06
26443 H 149.75385183501135 301.11574934419446 163.33586397191465 H 0.0 **** 0.06
26444 H 148.32971950018316 300.06431828585255 163.14575585572277 H 0.0 **** 0.06
26445 H 149.4637783925853 300.2793460562822 161.79096002207132 H 0.0 **** 0.06
26446 C 116.84020919328768 38.92037046058016 205.72125561352135 C 0.0 **** -0.24
26447 H 115.88473515263289 38.519105477488296 206.0580405858925 H 0.0 **** 0.06
26448 H 117.55657709068339 38.10608273404873 205.6065652050669 H 0.0 **** 0.06
26449 H 117.21450377065128 39.63229401893426 206.45817675912122 H 0.0 **** 0.06
26450 H 116.7057656819172 39.423838170122764 204.76434205747324 H 0.0 **** 0.06
26451 C 97.98591413629225 296.92138020296494 241.07119501409989 C 0.0 **** -0.24
26452 H 97.33852518808445 296.22393525054576 241.60340873163807 H 0.0 **** 0.06
26453 H 97.57785633204628 297.9284955379216 241.14930951333332 H 0.0 **** 0.06
26454 H 98.046129489945 296.632302183657 240.02149821779642 H 0.0 **** 0.06
26455 H 98.9830571476694 296.8976988190216 241.51146011548303 H 0.0 **** 0.06
26456 C 109.09794967015418 198.67310582191993 133.55180657800895 C 0.0 **** -0.24
26457 H 109.31345285031051 198.37542616957018 132.52546961808727 H 0.0 **** 0.06
26458 H 109.99954298027598 199.07990189959855 134.00861375770802 H 0.0 **** 0.06
26459 H 108.76413967729124 197.80349851104245 134.1188377661136 H 0.0 **** 0.06
26460 H 108.31455445528982 199.43030344386847 133.55323622232092 H 0.0 **** 0.06
26461 C 31.39150833281542 10.562730467572663 125.99830418777586 C 0.0 **** -0.24
26462 H 31.66982905286136 10.998084831442526 126.95843256873621 H 0.0 **** 0.06
26463 H 30.935901468944053 9.586171440461612 126.16069630554486 H 0.0 **** 0.06
26464 H 32.281153256743096 10.4503015096668 125.37902558609696 H 0.0 **** 0.06
26465 H 30.67881924745643 11.217020206575597 125.49627076778452 H 0.0 **** 0.06
26466 C 62.56149414439005 296.2923339285311 135.71754426353573 C 0.0 **** -0.24
26467 H 62.67112050894278 295.9262038880764 136.73836462177573 H 0.0 **** 0.06
26468 H 61.51410234956691 296.23240724581814 135.42112973540281 H 0.0 **** 0.06
26469 H 63.16554363289282 295.681871696413 135.04598233006445 H 0.0 **** 0.06
26470 H 62.89629793004468 297.3283441061502 135.6665865703562 H 0.0 **** 0.06
26471 C 258.05658395423524 201.111037554174 72.81214583349805 C 0.0 **** -0.24
26472 H 259.11344868967603 200.85254102197626 72.88101400955489 H 0.0 **** 0.06
26473 H 257.55987750588196 200.4243107646273 72.12679674709926 H 0.0 **** 0.06
26474 H 257.9551684046749 202.13105427425802 72.4426067648102 H 0.0 **** 0.06
26475 H 257.59942811221913 201.0348502200879 73.7988997936491 H 0.0 **** 0.06
26476 C 20.024887273091053 115.38098595532892 40.85532061654544 C 0.0 **** -0.24
26477 H 20.619286185902126 114.80557719844066 40.145105122431914 H 0.0 **** 0.06
26478 H 20.052970248266774 116.43611830919991 40.581248696712066 H 0.0 **** 0.06
26479 H 20.434349963970647 115.25501678800907 41.85720205661957 H 0.0 **** 0.06
26480 H 18.99488120895637 115.02757571382486 40.83737486160453 H 0.0 **** 0.06
26481 C 119.09465320763454 29.150178696935882 313.8508587789593 C 0.0 **** -0.24
26482 H 119.48554962253732 28.667775130883143 314.7473709915769 H 0.0 **** 0.06
26483 H 119.91986202702373 29.398214002888665 313.18259143297286 H 0.0 **** 0.06
26484 H 118.56680193050994 30.061806189885374 314.13050443391614 H 0.0 **** 0.06
26485 H 118.40720636130908 28.473344091071112 313.34500989556847 H 0.0 **** 0.06
26486 C 279.89299229387416 305.5545831373038 310.1901061760117 C 0.0 **** -0.24
26487 H 280.18937203192934 305.7144542184881 311.22611178986256 H 0.0 **** 0.06
26488 H 279.1332461579545 304.77420023476157 310.14629197230687 H 0.0 **** 0.06
26489 H 280.76160557123643 305.2511971120826 309.60633375415614 H 0.0 **** 0.06
26490 H 279.48646854811784 306.4803112107267 309.78154610344535 H 0.0 **** 0.06
26491 C 16.269576496099532 217.7643360851882 216.9268659702282 C 0.0 **** -0.24
26492 H 16.85223604259032 218.30703695508123 216.18207608612644 H 0.0 **** 0.06
26493 H 16.855839385664993 216.92847238165123 217.30861725495004 H 0.0 **** 0.06
26494 H 15.35545826334672 217.38812763443397 216.46874000150703 H 0.0 **** 0.06
26495 H 16.015168132130682 218.43537730623524 217.74779679419834 H 0.0 **** 0.06
26496 C 207.0816463722129 183.1999875819755 266.5970731059121 C 0.0 **** -0.24
26497 H 207.3016587039694 183.20058113869192 265.52943666395896 H 0.0 **** 0.06
26498 H 206.7829404063711 184.20192624940074 266.9061572450193 H 0.0 **** 0.06
26499 H 207.97093755129674 182.8979640272707 267.15050451289335 H 0.0 **** 0.06
26500 H 206.27200016208877 182.5000509279398 266.8002529240216 H 0.0 **** 0.06
26501 C 280.8577812993448 18.845861542594506 192.72481595052113 C 0.0 **** -0.24
26502 H 281.8705395961497 18.88447946979977 192.32315484997315 H 0.0 **** 0.06
26503 H 280.7101676316575 19.67638118005665 193.4156116437365 H 0.0 **** 0.06
26504 H 280.71192671287855 17.90361216521086 193.25276755738304 H 0.0 **** 0.06
26505 H 280.1397718266042 18.919931769138813 191.9083942787542 H 0.0 **** 0.06
26506 C 103.92458867331331 168.40871243603834 149.348718928992 C 0.0 **** -0.24
26507 H 103.8807135199915 167.546711020881 148.68283389210237 H 0.0 **** 0.06
26508 H 102.9417763629844 168.87827638269948 149.40022637437858 H 0.0 **** 0.06
26509 H 104.65050776566474 169.1263445197389 148.96765330534555 H 0.0 **** 0.06
26510 H 104.223892035516 168.08338384106827 150.3450763712895 H 0.0 **** 0.06
26511 C 176.63957274135248 8.387670047455572 205.9328214169572 C 0.0 **** -0.24
26512 H 175.95815820409825 9.229968952616332 205.81132600650898 H 0.0 **** 0.06
26513 H 177.47112547468276 8.68381901478017 206.57313867869817 H 0.0 **** 0.06
26514 H 177.02061898877952 8.086648577493122 204.95767569674064 H 0.0 **** 0.06
26515 H 176.10792786191615 7.553844059805215 206.3900536220184 H 0.0 **** 0.06
26516 C 208.11900007063522 246.97572055006404 103.99699289684455 C 0.0 **** -0.24
26517 H 207.85726265555766 246.33598738210793 104.8386278179085 H 0.0 **** 0.06
26518 H 209.19971356695248 246.96045210399436 103.8506249696552 H 0.0 **** 0.06
26519 H 207.7938480963619 247.9966266559887 104.2021130450774 H 0.0 **** 0.06
26520 H 207.62533967351428 246.61117711349277 103.09625828317297 H 0.0 **** 0.06
26521 C 108.61158188628912 175.10983639460613 251.04588303429912 C 0.0 **** -0.24
26522 H 108.96949695665668 174.09353686292422 251.21230543897616 H 0.0 **** 0.06
26523 H 107.89940915268423 175.11337500430278 250.22061469827233 H 0.0 **** 0.06
26524 H 109.45420858762984 175.75644020102163 250.80255382076615 H 0.0 **** 0.06
26525 H 108.12317447119918 175.47454393763962 251.95003233563142 H 0.0 **** 0.06
26526 C 2.7229002182217386 110.80306188646213 82.57838944228885 C 0.0 **** -0.24
26527 H 2.7761398932310186 110.48864976862714 81.53600759873706 H 0.0 **** 0.06
26528 H 3.4014884198007707 110.19544384452303 83.17698589839691 H 0.0 **** 0.06
26529 H 1.7027261594934089 110.67573142797974 82.94399470153382 H 0.0 **** 0.06
26530 H 3.0085314839858768 111.85119769651817 82.65692889550894 H 0.0 **** 0.06
26531 C 14.660839513181358 253.8931112096975 150.45337661394973 C 0.0 **** -0.24
26532 H 15.272080847886812 253.2704068267086 151.10660370463478 H 0.0 **** 0.06
26533 H 14.44699588260822 254.83933768962487 150.95048193545745 H 0.0 **** 0.06
26534 H 13.725408426648272 253.37899131822152 150.2327575551143 H 0.0 **** 0.06
26535 H 15.198284574394222 254.08289093063019 149.52465555226468 H 0.0 **** 0.06
26536 C 41.216505249295636 307.5520819434743 37.322297691217614 C 0.0 **** -0.24
26537 H 41.11187907011859 308.4801053513259 36.76116823889038 H 0.0 **** 0.06
26538 H 40.783631928058554 307.6776473850397 38.31491058607912 H 0.0 **** 0.06
26539 H 42.27425764974322 307.3025132212537 37.41647662037417 H 0.0 **** 0.06
26540 H 40.6987281633001 306.749858221013 36.79743739178514 H 0.0 **** 0.06
26541 C 190.94399579997736 178.59675013078646 213.687300976413 C 0.0 **** -0.24
26542 H 190.83415640684717 179.07804630540858 212.71520599517402 H 0.0 **** 0.06
26543 H 191.44806734090287 177.6386234615892 213.5632021665498 H 0.0 **** 0.06
26544 H 189.95981495185657 178.4366367021198 214.12666198335324 H 0.0 **** 0.06
26545 H 191.53516611701326 179.2364215386511 214.34387199584995 H 0.0 **** 0.06
26546 C 262.33801134397163 219.3488845372106 79.83831201229651 C 0.0 **** -0.24
26547 H 261.37360678756505 218.8451482731862 79.76851243841699 H 0.0 **** 0.06
26548 H 262.9072077869208 219.17012822910993 78.92654672573929 H 0.0 **** 0.06
26549 H 262.8889732175939 218.9597048485558 80.69429947250677 H 0.0 **** 0.06
26550 H 262.1792128363772 220.4193299933102 79.96568510915867 H 0.0 **** 0.06
26551 C 306.0764694240923 106.54122714404195 97.35575668820655 C 0.0 **** -0.24
26552 H 305.1172491539157 107.02447428848362 97.17355071990556 H 0.0 **** 0.06
26553 H 305.91203162336956 105.57599942208756 97.83548474423594 H 0.0 **** 0.06
26554 H 306.6830780186787 107.17110866366494 98.00739818459965 H 0.0 **** 0.06
26555 H 306.59453352994086 106.39317840286643 96.40881767356234 H 0.0 **** 0.06
26556 C 262.8123932725989 84.87720326390874 18.59360702842433 C 0.0 **** -0.24
26557 H 262.81820065944277 85.92897362237412 18.878648664953232 H 0.0 **** 0.06
26558 H 262.88000115884364 84.7954775433673 17.50831746578787 H 0.0 **** 0.06
26559 H 261.88743515819283 84.4138764093064 18.935572023844983 H 0.0 **** 0.06
26560 H 263.6630311018253 84.37256788979937 19.050970964004804 H 0.0 **** 0.06
26561 C 7.33358480170709 287.5168046315117 219.9793254609695 C 0.0 **** -0.24
26562 H 6.949043454523675 288.53159114171586 219.87907258466237 H 0.0 **** 0.06
26563 H 6.501662844272104 286.8119176306041 219.9809149585716 H 0.0 **** 0.06
26564 H 7.885987698905936 287.42890440161875 220.9145810069742 H 0.0 **** 0.06
26565 H 7.996818585255866 287.2952300714833 219.14379927464273 H 0.0 **** 0.06
26566 C 19.913644799815742 79.63344527981579 286.4293188466061 C 0.0 **** -0.24
26567 H 19.564098594269822 79.12682957340155 287.3284764093555 H 0.0 **** 0.06
26568 H 20.577089706985845 78.970493416576 285.8735319862058 H 0.0 **** 0.06
26569 H 20.45366074799537 80.53765169872236 286.7090417000329 H 0.0 **** 0.06
26570 H 19.058349376515224 79.89863393341906 285.8064777156545 H 0.0 **** 0.06
26571 C 217.58792314876558 97.2144706815215 303.18703252503303 C 0.0 **** -0.24
26572 H 218.24384328794565 96.8200908142162 303.9628628153146 H 0.0 **** 0.06
26573 H 218.17923216674103 97.77681154461058 302.4642180606324 H 0.0 **** 0.06
26574 H 216.84463110762815 97.87131242457482 303.63973023820824 H 0.0 **** 0.06
26575 H 217.08444495876773 96.39010196261913 302.68346398856863 H 0.0 **** 0.06
26576 C 119.7791964174275 198.79880362522545 182.62624472089095 C 0.0 **** -0.24
26577 H 119.0298284348782 199.29379421956622 183.244094451087 H 0.0 **** 0.06
26578 H 119.4736697001633 198.84074407084154 181.58126109926326 H 0.0 **** 0.06
26579 H 119.87501917905396 197.7583994392993 182.9361858061461 H 0.0 **** 0.06
26580 H 120.7384106792478 199.30367186605525 182.7451792149921 H 0.0 **** 0.06
26581 C 188.94414816064375 140.44560988276461 223.92121178100913 C 0.0 **** -0.24
26582 H 189.71787482308832 139.69141362745356 224.068254001711 H 0.0 **** 0.06
26583 H 188.93134788853592 141.12258661927984 224.7747860287784 H 0.0 **** 0.06
26584 H 187.97355298774067 139.9569884891333 223.82955209008833 H 0.0 **** 0.06
26585 H 189.15429228491752 141.00866930581697 223.01244840238112 H 0.0 **** 0.06
26586 C 157.0056874342966 133.7857708148299 238.14720581045344 C 0.0 **** -0.24
26587 H 157.39444014615952 134.5101706953508 238.863306009223 H 0.0 **** 0.06
26588 H 155.91627502070764 133.81636511367788 238.1558620632577 H 0.0 **** 0.06
26589 H 157.34399987020458 132.78616326308364 238.4214899546276 H 0.0 **** 0.06
26590 H 157.3688707195742 134.03088678865325 237.14959646477396 H 0.0 **** 0.06
26591 C 132.81173814806968 105.16465498215288 273.8146429026518 C 0.0 **** -0.24
26592 H 132.98360316905553 105.86366950893054 272.9960224431354 H 0.0 **** 0.06
26593 H 132.55589874731714 104.18547047511362 273.4072987465414 H 0.0 **** 0.06
26594 H 131.9920636458903 105.52628574903684 274.43451082677257 H 0.0 **** 0.06
26595 H 133.71508574645773 105.08212409939804 274.41855690098146 H 0.0 **** 0.06
26596 C 51.08755202966435 119.0518842365627 88.08131406449942 C 0.0 **** -0.24
26597 H 50.022382678905075 119.28018924280505 88.0316609367425 H 0.0 **** 0.06
26598 H 51.22987984571125 118.09109559250444 88.57591928458592 H 0.0 **** 0.06
26599 H 51.599961925238915 119.83149678678652 88.64476123964195 H 0.0 **** 0.06
26600 H 51.49527951955193 119.00519766078759 87.07169334065759 H 0.0 **** 0.06
26601 C 131.75582090610732 295.6901628912743 225.74369480325802 C 0.0 **** -0.24
26602 H 131.40864797974677 294.68353946627656 225.9722786614791 H 0.0 **** 0.06
26603 H 132.15154780748662 296.15223331903377 226.64831598961956 H 0.0 **** 0.06
26604 H 130.9240556133468 296.2852424427715 225.36630087599184 H 0.0 **** 0.06
26605 H 132.53903810655663 295.6408028033874 224.9870841044244 H 0.0 **** 0.06
26606 C 232.46038113869136 299.7391807062173 200.82983323646897 C 0.0 **** -0.24
26607 H 232.19368259473578 300.0356738552101 199.81577256479818 H 0.0 **** 0.06
26608 H 233.37874797069912 300.2459279402837 201.1267708624879 H 0.0 **** 0.06
26609 H 232.61313088081016 298.6605120492227 200.86413767261132 H 0.0 **** 0.06
26610 H 231.65589078012704 300.01330835629733 201.51210125066854 H 0.0 **** 0.06
26611 C 209.69261251102256 154.4338321356778 237.32066517480925 C 0.0 **** -0.24
26612 H 208.8344414592392 154.21002467355356 236.68629224060174 H 0.0 **** 0.06
26613 H 209.91851223130152 155.4985272538646 237.26268266861507 H 0.0 **** 0.06
26614 H 210.55400649412542 153.85995656627642 236.98152718113016 H 0.0 **** 0.06
26615 H 209.46073531024877 154.16733878345252 238.3517799144896 H 0.0 **** 0.06
26616 C 173.05070441194187 196.84936609420993 155.2164194113745 C 0.0 **** -0.24
26617 H 173.40608402579738 197.8265618586771 154.89049439715876 H 0.0 **** 0.06
26618 H 172.73788434892475 196.2685349471509 154.3487725152205 H 0.0 **** 0.06
26619 H 172.20498276302595 196.97766501160214 155.89256483492323 H 0.0 **** 0.06
26620 H 173.85465351582047 196.32607683331418 155.73454733002592 H 0.0 **** 0.06
26621 C 1.7061795386151886 297.0034397730896 4.960347730756055 C 0.0 **** -0.24
26622 H 0.9570337677340177 296.2451539869303 5.18809019569197 H 0.0 **** 0.06
26623 H 2.7017774749124186 296.56678947722367 5.045744587346491 H 0.0 **** 0.06
26624 H 1.610336780498244 297.8307773519115 5.663187004216482 H 0.0 **** 0.06
26625 H 1.555301215751058 297.37027720455626 3.9449594397023873 H 0.0 **** 0.06
26626 C 130.1569401868132 145.53602110096733 150.1483058325531 C 0.0 **** -0.24
26627 H 129.88244630988376 145.56341786634485 151.20237455633975 H 0.0 **** 0.06
26628 H 131.21915739468955 145.75582501067476 150.044117581384 H 0.0 **** 0.06
26629 H 129.57700713757765 146.27978217612372 149.60255820955348 H 0.0 **** 0.06
26630 H 129.9491499051017 144.54505935072592 149.74417298293508 H 0.0 **** 0.06
26631 C 29.570076977445495 9.665399661874048 165.96003621968936 C 0.0 **** -0.24
26632 H 30.37014212393069 8.92545383874237 165.97039423493197 H 0.0 **** 0.06
26633 H 29.962251988937226 10.619136611204866 165.60807040011377 H 0.0 **** 0.06
26634 H 29.173578139006537 9.7853728299403 166.9678320602227 H 0.0 **** 0.06
26635 H 28.77431838092292 9.33037697148869 165.29449328016136 H 0.0 **** 0.06
26636 C 35.57402820940692 288.09034295267287 272.2818964131469 C 0.0 **** -0.24
26637 H 36.30536392983535 287.7364925674019 271.5542609788994 H 0.0 **** 0.06
26638 H 35.481259027395566 287.3620350251457 273.08685777032696 H 0.0 **** 0.06
26639 H 34.60768161180923 288.21715361068243 271.7927750938728 H 0.0 **** 0.06
26640 H 35.902321471111435 289.04651321196957 272.69085279812543 H 0.0 **** 0.06
26641 C 48.544359496478336 90.48059118644997 82.31073514274888 C 0.0 **** -0.24
26642 H 49.47126170344012 91.00011418425706 82.55104015215969 H 0.0 **** 0.06
26643 H 48.65916642380304 89.95232847680512 81.36399271153877 H 0.0 **** 0.06
26644 H 47.73356728459214 91.20369072253601 82.22689364751335 H 0.0 **** 0.06
26645 H 48.312630895356506 89.76519382924425 83.1004995580627 H 0.0 **** 0.06
26646 C 225.63584029354496 201.30887140371522 280.81802491829137 C 0.0 **** -0.24
26647 H 225.33458026162944 200.7109745926038 279.9573198871411 H 0.0 **** 0.06
26648 H 224.7876180853878 201.90112565875467 281.16225933813365 H 0.0 **** 0.06
26649 H 226.45092249996245 201.97294721575008 280.5321654109274 H 0.0 **** 0.06
26650 H 225.96690208741265 200.64968069735153 281.6198235503251 H 0.0 **** 0.06
26651 C 207.9748764810991 181.88297655713347 56.19690607090476 C 0.0 **** -0.24
26652 H 207.30366382063494 182.0985649088256 57.0278348127585 H 0.0 **** 0.06
26653 H 207.7339705304917 180.904455920849 55.78078464639216 H 0.0 **** 0.06
26654 H 209.00502158287046 181.88296380185278 56.55148809778086 H 0.0 **** 0.06
26655 H 207.8554193083622 182.64513740248958 55.42693517584948 H 0.0 **** 0.06
26656 C 148.0218995712429 194.89249277789236 230.09437120277772 C 0.0 **** -0.24
26657 H 149.03447602700538 195.00167597001047 230.48401630543734 H 0.0 **** 0.06
26658 H 147.30611484571574 195.23766151785424 230.8409514871804 H 0.0 **** 0.06
26659 H 147.8324536076318 193.8436426920601 229.8654540223191 H 0.0 **** 0.06
26660 H 147.91543846685136 195.48722020485997 229.1874689654217 H 0.0 **** 0.06
26661 C 100.92747070683959 77.79746356167328 306.116079872784 C 0.0 **** -0.24
26662 H 101.23164033617917 78.84241139990064 306.04444043874815 H 0.0 **** 0.06
26663 H 99.84313643980212 77.72936790520123 306.0250659643074 H 0.0 **** 0.06
26664 H 101.23734451284716 77.39448321437129 307.0794953631848 H 0.0 **** 0.06
26665 H 101.39665891770693 77.22709132368536 305.314584843636 H 0.0 **** 0.06
26666 C 298.76401294382356 10.584270486889466 202.97365361512823 C 0.0 **** -0.24
26667 H 298.59069718106105 9.562680894921002 203.31244957664444 H 0.0 **** 0.06
26668 H 298.473161649822 10.674190613534321 201.92644386963144 H 0.0 **** 0.06
26669 H 299.82141166777615 10.827596152563572 203.07947852113637 H 0.0 **** 0.06
26670 H 298.17074649412893 11.271749948875296 203.5767442052524 H 0.0 **** 0.06
26671 C 144.4361767406921 12.16082966678725 10.011572142488177 C 0.0 **** -0.24
26672 H 145.49158655945416 12.084136131739399 9.753193430111295 H 0.0 **** 0.06
26673 H 144.32517635436417 12.152074098643808 11.095579338659974 H 0.0 **** 0.06
26674 H 143.89597201695057 11.316045498124737 9.58384686121228 H 0.0 **** 0.06
26675 H 144.03109890229948 13.09054415487985 9.61167682289161 H 0.0 **** 0.06
26676 C 106.97426259016669 164.9933724009855 138.95702838422136 C 0.0 **** -0.24
26677 H 107.71330136764999 164.4259962608577 139.52252405169054 H 0.0 **** 0.06
26678 H 106.21591903083473 165.38196645419254 139.63775598317548 H 0.0 **** 0.06
26679 H 106.50348975112888 164.34381260535957 138.21963611936556 H 0.0 **** 0.06
26680 H 107.4658044580606 165.8233622056162 138.44857202384324 H 0.0 **** 0.06
26681 C 119.69642955470113 92.67762008621409 178.00532742163466 C 0.0 **** -0.24
26682 H 119.67497112516716 92.36102475282539 176.96333064948016 H 0.0 **** 0.06
26683 H 120.64940926010405 92.39465187297063 178.4523218523251 H 0.0 **** 0.06
26684 H 118.88348588561604 92.19626692468486 178.54843797412116 H 0.0 **** 0.06
26685 H 119.57727046161833 93.76073574618681 178.05812833746444 H 0.0 **** 0.06
26686 C 200.69720084546407 175.41491726607683 274.3135047920145 C 0.0 **** -0.24
26687 H 200.58196348370979 176.3441948173973 273.7558651847052 H 0.0 **** 0.06
26688 H 201.06816660789485 174.6359996339492 273.6471729854687 H 0.0 **** 0.06
26689 H 199.73246711073904 175.1142155817642 274.72170898913856 H 0.0 **** 0.06
26690 H 201.40629281114894 175.56511074325522 275.1278682585355 H 0.0 **** 0.06
26691 C 124.37704087068897 102.79615535296318 26.607965005116256 C 0.0 **** -0.24
26692 H 124.11188865780079 101.82518320001341 27.02628752670134 H 0.0 **** 0.06
26693 H 124.71664214954728 103.45554974858686 27.406743042302935 H 0.0 **** 0.06
26694 H 123.50299816724672 103.23263346250317 26.122447166310025 H 0.0 **** 0.06
26695 H 125.17381464032903 102.67033451215286 25.87528634209417 H 0.0 **** 0.06
26696 C 190.3908462603303 60.30188220733709 281.33696191030117 C 0.0 **** -0.24
26697 H 190.95491645279265 59.440080972297665 280.97881696214074 H 0.0 **** 0.06
26698 H 189.3446471708113 60.02247730391824 281.4629766581423 H 0.0 **** 0.06
26699 H 190.46725685920234 61.11147379150009 280.61194175065026 H 0.0 **** 0.06
26700 H 190.7971716523861 60.62955288270135 282.29307432395336 H 0.0 **** 0.06
26701 C 215.8026351263428 296.5777887010261 0.9484797094628448 C 0.0 **** -0.24
26702 H 215.0021911728276 296.96246765912275 0.3167583113137198 H 0.0 **** 0.06
26703 H 216.76576433236372 296.793089585368 0.48597131961537343 H 0.0 **** 0.06
26704 H 215.68692953417155 295.5006585810949 1.064605787606638 H 0.0 **** 0.06
26705 H 215.75436734637518 297.05542666238244 1.9269042327594548 H 0.0 **** 0.06
26706 C 191.1640034976034 278.1831933486359 49.00255832570966 C 0.0 **** -0.24
26707 H 190.67108166019273 278.6061219122101 48.12804484064654 H 0.0 **** 0.06
26708 H 191.8940493232961 277.43954496121546 48.68404535079216 H 0.0 **** 0.06
26709 H 190.42114859564867 277.7115480906973 49.64637794200516 H 0.0 **** 0.06
26710 H 191.66984612287746 278.97653435449735 49.55377392901926 H 0.0 **** 0.06
26711 C 33.442028594735746 146.14609126288877 117.13470818514514 C 0.0 **** -0.24
26712 H 33.14494123429051 145.37757056138057 116.42123472328481 H 0.0 **** 0.06
26713 H 34.00969151834158 145.68880467240882 117.94571874840582 H 0.0 **** 0.06
26714 H 32.55399438539962 146.62920736276462 117.53985682237004 H 0.0 **** 0.06
26715 H 34.06181165857129 146.8890334290714 116.63129161030312 H 0.0 **** 0.06
26716 C 106.39059081116713 81.0706052754858 258.22295734779124 C 0.0 **** -0.24
26717 H 105.57861667895756 80.55470592728756 258.734304798958 H 0.0 **** 0.06
26718 H 107.34267473050252 80.62227936641094 258.50761054287227 H 0.0 **** 0.06
26719 H 106.38457607593816 82.1239826418304 258.50505538394884 H 0.0 **** 0.06
26720 H 106.25488977382605 80.98326066372076 257.1444665031002 H 0.0 **** 0.06
26721 C 2.6663690893381045 99.03169964366208 19.74368816081575 C 0.0 **** -0.24
26722 H 2.636168634422745 100.04386005472313 20.146575965210346 H 0.0 **** 0.06
26723 H 3.4420281803535318 98.96753821350629 18.97994236559991 H 0.0 **** 0.06
26724 H 1.7006209346007495 98.78674653517439 19.302597668640942 H 0.0 **** 0.06
26725 H 2.8883921766376375 98.32735671021635 20.546195566791795 H 0.0 **** 0.06
26726 C 210.75995489493397 187.97960756613088 97.71074421750379 C 0.0 **** -0.24
26727 H 209.9091735593908 188.50079974692517 97.27053383041249 H 0.0 **** 0.06
26728 H 211.65155981860897 188.60190337439695 97.62283548468545 H 0.0 **** 0.06
26729 H 210.92019142117 187.0376051257344 97.18543001445315 H 0.0 **** 0.06
26730 H 210.55829045331234 187.7790500378108 98.76329800887402 H 0.0 **** 0.06
26731 C 61.71533856205053 201.48256172492182 157.22528015516093 C 0.0 **** -0.24
26732 H 61.30112936771732 201.7217007697031 156.24579528507138 H 0.0 **** 0.06
26733 H 61.10123582391637 201.93945911645977 158.00085087878512 H 0.0 **** 0.06
26734 H 62.73291728524049 201.86907948406935 157.29274807215313 H 0.0 **** 0.06
26735 H 61.727663575748835 200.40143820459662 157.35987723257176 H 0.0 **** 0.06
26736 C 195.55182155011744 13.869433133877294 275.5485734145236 C 0.0 **** -0.24
26737 H 195.6316447720148 14.533074156957483 274.68712742133823 H 0.0 **** 0.06
26738 H 194.73577313384538 13.164419329184256 275.38866447340297 H 0.0 **** 0.06
26739 H 195.35368296603002 14.459041638108033 276.443053295892 H 0.0 **** 0.06
26740 H 196.48656730533094 13.322030044274683 275.6722608561996 H 0.0 **** 0.06
26741 C 219.62180620852797 146.85156853961442 53.72905150572285 C 0.0 **** -0.24
26742 H 219.45865586063516 147.88824628458352 54.022192364650664 H 0.0 **** 0.06
26743 H 219.10951076330124 146.1911399318654 54.429955770804554 H 0.0 **** 0.06
26744 H 220.69054097219419 146.6349651665631 53.74015730387788 H 0.0 **** 0.06
26745 H 219.22812313762603 146.69176950180946 52.725250102401674 H 0.0 **** 0.06
26746 C 149.5450649415539 172.60374618485105 12.870589812560823 C 0.0 **** -0.24
26747 H 149.57656386818348 172.16207883243203 11.874603308063996 H 0.0 **** 0.06
26748 H 148.65512321184357 172.2552862314859 13.394775589707422 H 0.0 **** 0.06
26749 H 149.51534138314776 173.68948832248043 12.785920661589742 H 0.0 **** 0.06
26750 H 150.43411808585654 172.3070438485575 13.427235643484806 H 0.0 **** 0.06
26751 C 75.22571299147552 120.82867031695196 259.689343981191 C 0.0 **** -0.24
26752 H 74.16596902348371 121.0236299405511 259.8525120404321 H 0.0 **** 0.06
26753 H 75.35518949522509 120.28157255563085 258.7558348907961 H 0.0 **** 0.06
26754 H 75.61693644564193 120.2355209999267 260.5163200688596 H 0.0 **** 0.06
26755 H 75.76442159866318 121.77466470737758 259.635030082548 H 0.0 **** 0.06
26756 C 309.27750999439604 177.98995740664452 298.73336244242944 C 0.0 **** -0.24
26757 H 310.25917852657244 177.80041906818133 299.1658199021192 H 0.0 **** 0.06
26758 H 309.20093072609745 177.48616373560992 297.7690767435756 H 0.0 **** 0.06
26759 H 309.1432542681686 179.06287002004507 298.59419248925235 H 0.0 **** 0.06
26760 H 308.505911620043 177.61107210184957 299.403395444129 H 0.0 **** 0.06
26761 C 22.317328120887368 80.48714458727895 137.46210590002102 C 0.0 **** -0.24
26762 H 23.085099181305196 81.03504182443365 136.91570534478538 H 0.0 **** 0.06
26763 H 22.16419237948915 79.51345001357103 136.99455517450187 H 0.0 **** 0.06
26764 H 21.38467715789966 81.0504601548495 137.44079627019946 H 0.0 **** 0.06
26765 H 22.635172353863055 80.34860542916743 138.49538480437766 H 0.0 **** 0.06
26766 C 208.69453909393133 176.71587775480606 61.15106806395477 C 0.0 **** -0.24
26767 H 209.30178193082037 176.48994164006604 60.2751803120442 H 0.0 **** 0.06
26768 H 208.19080598477672 175.81008335664183 61.48783624947714 H 0.0 **** 0.06
26769 H 207.95162090495398 177.47125796219308 60.89378094901895 H 0.0 **** 0.06
26770 H 209.33401308869472 177.09417689966142 61.94895722887355 H 0.0 **** 0.06
26771 C 13.495969766557891 14.329225442613449 268.6491972887575 C 0.0 **** -0.24
26772 H 13.058346301263299 14.867373780619673 267.8079830343466 H 0.0 **** 0.06
26773 H 14.02101410353852 13.447200323801553 268.28353148430125 H 0.0 **** 0.06
26774 H 12.70486616306809 14.023226461162153 269.3342301819494 H 0.0 **** 0.06
26775 H 14.196746898329124 14.979847876963333 269.17104132984673 H 0.0 **** 0.06
26776 C 16.35527347108804 263.71720292193584 141.27546139716043 C 0.0 **** -0.24
26777 H 16.898657788574226 262.9973705095186 140.66244497283594 H 0.0 **** 0.06
26778 H 16.98401995344412 264.0322092829638 142.10864457406262 H 0.0 **** 0.06
26779 H 15.447871646915488 263.2525214891476 141.66090068473522 H 0.0 **** 0.06
26780 H 16.091208062725656 264.5845842129855 140.67005285061794 H 0.0 **** 0.06
26781 C 210.7890668210996 197.40833909450413 205.49771209312792 C 0.0 **** -0.24
26782 H 210.0084795346346 198.1568549307009 205.36630099951486 H 0.0 **** 0.06
26783 H 210.40460672993902 196.5867620207194 206.10287397577287 H 0.0 **** 0.06
26784 H 211.6448166077575 197.8595638644356 205.9988057516797 H 0.0 **** 0.06
26785 H 211.09633563101175 197.02896799678388 204.52352022527725 H 0.0 **** 0.06
26786 C 271.0156005378291 124.08883463376839 136.64529984272093 C 0.0 **** -0.24
26787 H 271.1204370840529 124.77262118006894 137.48814479370398 H 0.0 **** 0.06
26788 H 271.0265513508778 123.06150779887543 137.00847748639325 H 0.0 **** 0.06
26789 H 271.8427998733915 124.23812379783664 135.9514754024341 H 0.0 **** 0.06
26790 H 270.07277393563913 124.28479207005171 136.13535177869463 H 0.0 **** 0.06
26791 C 290.9052325914403 66.28318591705872 78.72349831000363 C 0.0 **** -0.24
26792 H 290.0662300412604 66.51466159056395 79.37994563064717 H 0.0 **** 0.06
26793 H 290.8196930880426 65.25478301440174 78.37302176074596 H 0.0 **** 0.06
26794 H 291.8387761873694 66.40474098992334 79.2727314735636 H 0.0 **** 0.06
26795 H 290.8954182344234 66.96099047659402 77.86948717964381 H 0.0 **** 0.06
26796 C 80.51336060336519 110.59178103943827 81.26018659570974 C 0.0 **** -0.24
26797 H 80.73973455347209 109.99333930130919 82.14218017111853 H 0.0 **** 0.06
26798 H 80.65724977636398 111.6472546688189 81.4916507925659 H 0.0 **** 0.06
26799 H 79.47828485386884 110.4224543926411 80.96336841960851 H 0.0 **** 0.06
26800 H 81.17782679883078 110.30480760237086 80.4456313378289 H 0.0 **** 0.06
26801 C 34.45234424348678 38.80181720099873 178.4869394101487 C 0.0 **** -0.24
26802 H 35.39489731097669 39.00191550321301 178.99617190403603 H 0.0 **** 0.06
26803 H 34.576422581878774 38.966769870768076 177.41615159852466 H 0.0 **** 0.06
26804 H 33.68267327323451 39.47061652159408 178.8706312277224 H 0.0 **** 0.06
26805 H 34.156309195316396 37.76800256286916 178.66333921624533 H 0.0 **** 0.06
26806 C 116.17294577029259 190.19910362526196 143.43744578423767 C 0.0 **** -0.24
26807 H 115.10051653651811 190.3815570266661 143.50312411418318 H 0.0 **** 0.06
26808 H 116.3592362971138 189.36791687126998 142.75771586189956 H 0.0 **** 0.06
26809 H 116.56032999884272 189.95306850084012 144.42663562013294 H 0.0 **** 0.06
26810 H 116.67238848891571 191.0931802361058 143.0651443853086 H 0.0 **** 0.06
26811 C 268.6570321876962 205.21028808710997 232.50644652402553 C 0.0 **** -0.24
26812 H 267.7846109505465 205.52106871934404 231.93080780237221 H 0.0 **** 0.06
26813 H 269.484551957085 205.0036848866738 231.8280274079269 H 0.0 **** 0.06
26814 H 268.4168438867407 204.30968723159583 233.071489910696 H 0.0 **** 0.06
26815 H 268.9405089940086 206.00633973491915 233.19365538324396 H 0.0 **** 0.06
26816 C 217.71406625532927 250.20523405457286 166.34743345396106 C 0.0 **** -0.24
26817 H 217.47222368557988 249.50286502039867 165.54982122941254 H 0.0 **** 0.06
26818 H 218.73590630499194 250.03225832991626 166.68603301736908 H 0.0 **** 0.06
26819 H 217.02585831604142 250.0596197760181 167.18064751320537 H 0.0 **** 0.06
26820 H 217.621877562696 251.22460266957933 165.97475233768824 H 0.0 **** 0.06
26821 C 231.81777479026113 31.033928849330437 209.22055105184654 C 0.0 **** -0.24
26822 H 231.63966186229246 30.86687156044536 210.28279678452492 H 0.0 **** 0.06
26823 H 231.03566180050962 30.544420335530106 208.63959490944546 H 0.0 **** 0.06
26824 H 232.78815297275372 30.618796871906966 208.94558199751293 H 0.0 **** 0.06
26825 H 231.80830292389462 32.10333540115221 209.01476657370077 H 0.0 **** 0.06
26826 C 74.68298609632924 130.74498465958303 89.28351037927865 C 0.0 **** -0.24
26827 H 74.02585907344402 131.61352387859483 89.25701424254294 H 0.0 **** 0.06
26828 H 75.32407949172526 130.80099413573552 90.16391855285406 H 0.0 **** 0.06
26829 H 75.29951565847304 130.72904475812868 88.38455344470691 H 0.0 **** 0.06
26830 H 74.08249016167466 129.83637586587312 89.32855527701079 H 0.0 **** 0.06
26831 C 38.28804128078417 35.17593938184055 296.3568439018836 C 0.0 **** -0.24
26832 H 39.10359817612178 34.49403352120089 296.1128096732523 H 0.0 **** 0.06
26833 H 37.434440893396584 34.96597065855386 295.71309405957277 H 0.0 **** 0.06
26834 H 38.61612763666312 36.20412422434919 296.20337200277754 H 0.0 **** 0.06
26835 H 38.00020015562316 35.037806822292055 297.39945324219025 H 0.0 **** 0.06
26836 C 66.38273634014774 234.92114400496598 223.43617006765294 C 0.0 **** -0.24
26837 H 66.84044032054345 234.34306216227856 222.63351958419096 H 0.0 **** 0.06
26838 H 66.90870936589451 235.86964499855017 223.5463544260179 H 0.0 **** 0.06
26839 H 66.44611806827024 234.36014025379882 224.369004405223 H 0.0 **** 0.06
26840 H 65.33662274394985 235.11117835633246 223.19669848731417 H 0.0 **** 0.06
26841 C 266.99319712821944 161.1350195858293 165.7190608787053 C 0.0 **** -0.24
26842 H 266.304753148259 160.72469795530708 164.9805255753168 H 0.0 **** 0.06
26843 H 267.9042874629105 160.53643403232854 165.73638397777597 H 0.0 **** 0.06
26844 H 266.5256872712528 161.1141666817585 166.70345055744855 H 0.0 **** 0.06
26845 H 267.23838911208475 162.16361168572814 165.4546473149208 H 0.0 **** 0.06
26846 C 258.18201984295825 291.25094100102234 253.9504667306814 C 0.0 **** -0.24
26847 H 258.5585899012068 291.4636560468133 252.94973417283236 H 0.0 **** 0.06
26848 H 257.0923105211442 291.25045287566104 253.9361592611129 H 0.0 **** 0.06
26849 H 258.5371606115094 292.0140320364111 254.6423499952635 H 0.0 **** 0.06
26850 H 258.5418898324366 290.2727791366323 254.27243616414177 H 0.0 **** 0.06
26851 C 204.04018258550389 168.73305283668333 300.37243936257954 C 0.0 **** -0.24
26852 H 203.87660840466464 169.3839711525261 299.51368026796956 H 0.0 **** 0.06
26853 H 204.01265722610657 169.32464162447053 301.28700341526394 H 0.0 **** 0.06
26854 H 205.01255200392876 168.249150710428 300.2800391639642 H 0.0 **** 0.06
26855 H 203.25887157117478 167.97368327981297 300.4061339537898 H 0.0 **** 0.06
26856 C 103.1332352336166 209.81502893795164 109.14672286718829 C 0.0 **** -0.24
26857 H 104.20319422218591 210.01273646349938 109.21755965661865 H 0.0 **** 0.06
26858 H 102.79012429325309 210.0388795660731 108.13618729980382 H 0.0 **** 0.06
26859 H 102.59942013702042 210.44287056283287 109.85939578087186 H 0.0 **** 0.06
26860 H 102.94224277803025 208.76621196312402 109.37187877107863 H 0.0 **** 0.06
26861 C 36.2845929054173 267.9687101281511 265.96176692739306 C 0.0 **** -0.24
26862 H 36.68470245026546 268.98198020942914 266.000399107274 H 0.0 **** 0.06
26863 H 36.35442457455463 267.5129541470707 266.9493581246215 H 0.0 **** 0.06
26864 H 36.8576173626017 267.3786872955475 265.2466932408972 H 0.0 **** 0.06
26865 H 35.240075242038216 268.00260783379366 265.6498035439351 H 0.0 **** 0.06
26866 C 205.468998625523 85.40292690882296 6.004823250887711 C 0.0 **** -0.24
26867 H 205.69604544815417 86.38976431558157 5.599893592072817 H 0.0 **** 0.06
26868 H 205.89743469907228 84.6381411826161 5.357332191491224 H 0.0 **** 0.06
26869 H 204.38816779299952 85.27271356793821 6.056558596880251 H 0.0 **** 0.06
26870 H 205.8940132032481 85.3141728234109 7.004335466145662 H 0.0 **** 0.06
26871 C 100.61084649133193 99.9402074522475 34.29831803591151 C 0.0 **** -0.24
26872 H 100.30681246031014 100.06306913956129 35.33826258627349 H 0.0 **** 0.06
26873 H 99.73711790113805 99.69895183286741 33.692423301248766 H 0.0 **** 0.06
26874 H 101.33828833836614 99.13259254916744 34.225799962247095 H 0.0 **** 0.06
26875 H 101.05862047763608 100.8666008182241 33.93950034446391 H 0.0 **** 0.06
26876 C 158.05448611632283 38.21555553257542 79.04840621040665 C 0.0 **** -0.24
26877 H 158.68025105714992 38.481064901739614 78.19626222948733 H 0.0 **** 0.06
26878 H 157.41269525473172 39.05936361678371 79.30373690077153 H 0.0 **** 0.06
26879 H 158.68698698506807 37.96944031244672 79.90093790859595 H 0.0 **** 0.06
26880 H 157.43797407124657 37.35434984206398 78.79257618317106 H 0.0 **** 0.06
26881 C 241.9417803091318 255.09162031454167 246.70927374393062 C 0.0 **** -0.24
26882 H 242.5834163744945 254.39002993142867 247.2442311748627 H 0.0 **** 0.06
26883 H 240.91650337588135 254.9922628400426 247.06783428167444 H 0.0 **** 0.06
26884 H 241.97653576248484 254.87214736188116 245.64198089133544 H 0.0 **** 0.06
26885 H 242.29150027452192 256.10916522451004 246.88322963292384 H 0.0 **** 0.06
26886 C 282.8820979545053 48.06173194782454 126.91312985813306 C 0.0 **** -0.24
26887 H 283.9173262310963 48.40272963783997 126.89801889670778 H 0.0 **** 0.06
26888 H 282.21915956874426 48.904193051017785 126.71304402291423 H 0.0 **** 0.06
26889 H 282.6521487425608 47.64302733321858 127.89285234706671 H 0.0 **** 0.06
26890 H 282.73930909129507 47.29831416572253 126.14871898835872 H 0.0 **** 0.06
26891 C 235.88634345996087 294.9228740280672 194.5198939453951 C 0.0 **** -0.24
26892 H 235.22030421052025 295.78518258634483 194.538920662485 H 0.0 **** 0.06
26893 H 236.9207580139621 295.2613100692502 194.58126109794898 H 0.0 **** 0.06
26894 H 235.7378959650868 294.37024575145097 193.59253766216955 H 0.0 **** 0.06
26895 H 235.66425428229218 294.274722370321 195.36800842968148 H 0.0 **** 0.06
26896 C 6.323166125137604 268.14022736334306 211.4341584773759 C 0.0 **** -0.24
26897 H 6.3425891901166125 267.0505985282921 211.43149494769204 H 0.0 **** 0.06
26898 H 5.361253690106452 268.4874921286295 211.05788863123547 H 0.0 **** 0.06
26899 H 7.1219880951803844 268.51952488606366 210.79622180091306 H 0.0 **** 0.06
26900 H 6.468039960358212 268.50350549681554 212.4517354626655 H 0.0 **** 0.06
26901 C 263.8561566709819 150.50878858732437 301.26112149716505 C 0.0 **** -0.24
26902 H 264.7965981118596 151.00614666579543 301.4994913574882 H 0.0 **** 0.06
26903 H 263.3355482158226 150.25401030685555 302.18479958977633 H 0.0 **** 0.06
26904 H 264.0598505412068 149.59982217603908 300.69562152579215 H 0.0 **** 0.06
26905 H 263.23321163900994 151.1766300086204 300.66616883282177 H 0.0 **** 0.06
26906 C 23.363448408079762 93.63446674355234 211.64541365604572 C 0.0 **** -0.24
26907 H 23.700382220443345 94.61193841898418 211.99016730509217 H 0.0 **** 0.06
26908 H 22.698591868738845 93.76043027012977 210.79023804421493 H 0.0 **** 0.06
26909 H 22.828579634469264 93.12988903690152 212.45060312878525 H 0.0 **** 0.06
26910 H 24.225710350216588 93.03597383215896 211.35141207747262 H 0.0 **** 0.06
26911 C 65.869101764167 137.39613351634375 103.97499306266698 C 0.0 **** -0.24
26912 H 66.48019272475693 136.70478951078846 103.39513993330613 H 0.0 **** 0.06
26913 H 65.42508579367012 136.86795914365769 104.81913582464068 H 0.0 **** 0.06
26914 H 65.07891146287642 137.80082382095128 103.34231115470661 H 0.0 **** 0.06
26915 H 66.49313016883173 138.21104960003723 104.34298719350218 H 0.0 **** 0.06
26916 C 151.89929844520304 194.74493132677145 135.2650150700814 C 0.0 **** -0.24
26917 H 152.93188751954546 194.4347769122126 135.42873555671548 H 0.0 **** 0.06
26918 H 151.84803341470132 195.83361325945964 135.2357422366313 H 0.0 **** 0.06
26919 H 151.27614978299385 194.37331062509242 136.07815045030625 H 0.0 **** 0.06
26920 H 151.54326531703697 194.33818536591644 134.31952605579727 H 0.0 **** 0.06
26921 C 211.03110750770577 127.63513200026782 193.09229866771318 C 0.0 **** -0.24
26922 H 212.10803676135524 127.67884836591978 192.93616858485916 H 0.0 **** 0.06
26923 H 210.79954692797193 127.93356473436779 194.1146821331444 H 0.0 **** 0.06
26924 H 210.6800694165374 126.6172935808207 192.9222058676856 H 0.0 **** 0.06
26925 H 210.535541925016 128.31117064362704 192.39554415155982 H 0.0 **** 0.06
26926 C 49.36323133823552 230.01779647439145 14.787405550279018 C 0.0 **** -0.24
26927 H 48.33373104934961 230.08833161740074 15.136543478046974 H 0.0 **** 0.06
26928 H 50.009093439897526 229.72542234923534 15.615995238469594 H 0.0 **** 0.06
26929 H 49.68252831225243 230.98642953838498 14.402242232081221 H 0.0 **** 0.06
26930 H 49.42816914682413 229.27226795249402 13.995047264584315 H 0.0 **** 0.06
26931 C 143.77242134465348 204.67125069768412 225.204595913271 C 0.0 **** -0.24
26932 H 143.44192285922153 204.97020142584347 224.21014754326058 H 0.0 **** 0.06
26933 H 143.84643524094324 205.55281102901694 225.8425580455027 H 0.0 **** 0.06
26934 H 144.74794611692533 204.18999391563824 225.1349706422224 H 0.0 **** 0.06
26935 H 143.05267205260935 203.9722003565555 225.63227445369802 H 0.0 **** 0.06
26936 C 202.8177355673365 281.2781009124432 41.40117313064914 C 0.0 **** -0.24
26937 H 203.83292404992528 280.91090943718746 41.2491562984934 H 0.0 **** 0.06
26938 H 202.74121548720706 281.73610931677655 42.38741718246763 H 0.0 **** 0.06
26939 H 202.11642918361196 280.44546276089176 41.33156405764569 H 0.0 **** 0.06
26940 H 202.58055374893178 282.0174868196139 40.63674680221851 H 0.0 **** 0.06
26941 C 274.9221263728314 309.7408877729044 103.68414734190253 C 0.0 **** -0.24
26942 H 275.2900184574569 309.9797672211349 104.68182232489909 H 0.0 **** 0.06
26943 H 275.05212071180335 308.67466197438193 103.49524690709248 H 0.0 **** 0.06
26944 H 275.4829018927414 310.31147033085483 102.94391919451604 H 0.0 **** 0.06
26945 H 273.86415901756067 309.9960649179714 103.61559039990186 H 0.0 **** 0.06
26946 C 30.717220404155512 97.59033042078113 291.15277255634965 C 0.0 **** -0.24
26947 H 30.43911045852738 98.35376692399524 290.4264903028967 H 0.0 **** 0.06
26948 H 31.80225384215302 97.48746116971111 291.1742133263888 H 0.0 **** 0.06
26949 H 30.267105996444826 96.63880967037281 290.86962836739565 H 0.0 **** 0.06
26950 H 30.359711705571556 97.8819495240374 292.14101806492147 H 0.0 **** 0.06
26951 C 212.35046655966974 313.264527909819 152.5224884915861 C 0.0 **** -0.24
26952 H 211.52462573354921 313.97487345614115 152.49978430150054 H 0.0 **** 0.06
26953 H 212.1280871176831 312.47216414615775 153.23692631114227 H 0.0 **** 0.06
26954 H 213.26398669023473 313.77845561797824 152.82070758790076 H 0.0 **** 0.06
26955 H 212.4848940579957 312.83231424270184 151.53033731926917 H 0.0 **** 0.06
26956 C 207.62767166417552 18.63503453380619 31.633010750384727 C 0.0 **** -0.24
26957 H 207.3802088168516 19.60245286724046 32.06912455869471 H 0.0 **** 0.06
26958 H 208.45666259742464 18.75238039830134 30.934331041696993 H 0.0 **** 0.06
26959 H 206.75953015107808 18.242306105359788 31.102580689126256 H 0.0 **** 0.06
26960 H 207.9139322585546 17.941535558892184 32.42407420952301 H 0.0 **** 0.06
26961 C 239.55897091877932 152.89653183443068 58.58327890873875 C 0.0 **** -0.24
26962 H 240.14317979415276 153.32540010123228 59.39671504281506 H 0.0 **** 0.06
26963 H 238.69025389778795 153.52627897253035 58.388577511219864 H 0.0 **** 0.06
26964 H 239.2273595165277 151.89586155974393 58.86185427168246 H 0.0 **** 0.06
26965 H 240.17324963560657 152.83860053323656 57.68469948959836 H 0.0 **** 0.06
26966 C 229.8744703711277 75.64894699746529 152.93060957649828 C 0.0 **** -0.24
26967 H 229.964609716652 76.72351151977082 152.7708587180466 H 0.0 **** 0.06
26968 H 229.52558943899248 75.46080261388411 153.9460007012421 H 0.0 **** 0.06
26969 H 230.84809585059656 75.17846547658536 152.78744910081042 H 0.0 **** 0.06
26970 H 229.162290348991 75.23437256788193 152.21721977570706 H 0.0 **** 0.06
26971 C 157.28109081964118 259.46055305585287 175.96045246234695 C 0.0 **** -0.24
26972 H 156.61461140317311 259.6860226719424 176.79347826834737 H 0.0 **** 0.06
26973 H 158.04538451314505 258.75448782419176 176.2887105911346 H 0.0 **** 0.06
26974 H 157.75718828932128 260.378175401158 175.61785974271146 H 0.0 **** 0.06
26975 H 156.70682355129844 259.02145282578874 175.14485547792157 H 0.0 **** 0.06
26976 C 218.83183176679614 196.90028774824572 59.56055347368482 C 0.0 **** -0.24
26977 H 219.43720102764047 196.48900472858202 60.36854894855662 H 0.0 **** 0.06
26978 H 218.1566879626555 197.65686703446255 59.96088830745106 H 0.0 **** 0.06
26979 H 218.2508021235256 196.10097969627952 59.099955444963314 H 0.0 **** 0.06
26980 H 219.48402195539398 197.35238953790122 58.81347765518757 H 0.0 **** 0.06
26981 C 263.4279231594341 83.88331236617651 189.97944991497303 C 0.0 **** -0.24
26982 H 262.4565833662455 83.75689623230994 190.4561220359173 H 0.0 **** 0.06
26983 H 263.365617031503 84.6774831028201 189.23420556184465 H 0.0 **** 0.06
26984 H 263.71943889860574 82.95202276385362 189.4951652935393 H 0.0 **** 0.06
26985 H 264.1702753520605 84.14906574382738 190.73213491878232 H 0.0 **** 0.06
26986 C 181.501846437775 212.45646038430093 165.29904404343927 C 0.0 **** -0.24
26987 H 181.96914292992983 211.75468181158837 165.99075726346177 H 0.0 **** 0.06
26988 H 180.49752863998214 212.11063581056789 165.05447610809244 H 0.0 **** 0.06
26989 H 182.09749320090947 212.51862191386988 164.3879890339295 H 0.0 **** 0.06
26990 H 181.44484676085386 213.44053145980237 165.76364548814013 H 0.0 **** 0.06
26991 C 65.42987857645073 88.34275572161488 0.34929145340315415 C 0.0 **** -0.24
26992 H 65.28175215628184 89.3368291925837 0.7707138616643334 H 0.0 **** 0.06
26993 H 66.42430911223977 88.28017182684167 -0.09266501016584527 H 0.0 **** 0.06
26994 H 64.67864804305 88.15698859961412 -0.4171455001785631 H 0.0 **** 0.06
26995 H 65.335424267387 87.59618316988562 1.139244723175068 H 0.0 **** 0.06
26996 C 96.24841592212081 254.25041651546314 163.5348411991303 C 0.0 **** -0.24
26997 H 96.35418391842549 254.82277854641796 164.45629287193867 H 0.0 **** 0.06
26998 H 96.21598770567584 253.18596650485006 163.77050397209103 H 0.0 **** 0.06
26999 H 97.09734259066428 254.45242705076015 162.8830900221239 H 0.0 **** 0.06
27000 H 95.32628870361012 254.53971393071888 163.0317957303265 H 0.0 **** 0.06
27001 C 232.76386900285456 158.29373573415762 127.94311357354417 C 0.0 **** -0.24
27002 H 232.58720936206163 157.22361678753356 128.05619834730118 H 0.0 **** 0.06
27003 H 231.94582826825032 158.73843028948158 127.3768702896447 H 0.0 **** 0.06
27004 H 233.70246569440346 158.4537546049263 127.41348959664185 H 0.0 **** 0.06
27005 H 232.8187771989243 158.75767927108518 128.9286224982731 H 0.0 **** 0.06
27006 C 111.73783066573077 302.08697659555196 271.32539849192983 C 0.0 **** -0.24
27007 H 110.66671550697586 302.1073017578985 271.5297794122017 H 0.0 **** 0.06
27008 H 111.97376307345141 301.21765449030386 270.712098138397 H 0.0 **** 0.06
27009 H 112.28466789921436 302.02756208475887 272.2664916363328 H 0.0 **** 0.06
27010 H 112.02336917814324 302.99537590869045 270.79569877306824 H 0.0 **** 0.06
27011 C 110.0853425078129 6.204351054691898 172.5458588651952 C 0.0 **** -0.24
27012 H 109.76922399386575 5.291399264448856 172.04109113224962 H 0.0 **** 0.06
27013 H 110.99954368550257 6.576853906450609 172.08218959898483 H 0.0 **** 0.06
27014 H 110.272548906829 5.990890064415339 173.59820221194587 H 0.0 **** 0.06
27015 H 109.3013513823442 6.955811789095961 172.46043039709838 H 0.0 **** 0.06
27016 C 198.84200372750905 300.7279769751413 55.390338719184 C 0.0 **** -0.24
27017 H 199.38721854271677 301.4849875444521 55.95495022961376 H 0.0 **** 0.06
27018 H 199.54396803807873 300.13917677741097 54.800674594904905 H 0.0 **** 0.06
27019 H 198.12889837736236 301.21577909853096 54.72557094076171 H 0.0 **** 0.06
27020 H 198.30837885918407 300.07546779970244 56.080883882475405 H 0.0 **** 0.06
27021 C 240.4095096371753 2.2833119445520964 145.80035169816662 C 0.0 **** -0.24
27022 H 240.61532364962537 2.8913937016394584 144.91830151361228 H 0.0 **** 0.06
27023 H 240.46009031103358 1.2274399162585468 145.53238675584157 H 0.0 **** 0.06
27024 H 239.41435030324183 2.516533318605397 146.17696825891568 H 0.0 **** 0.06
27025 H 241.14936402036867 2.5000800811269386 146.56988039131227 H 0.0 **** 0.06
27026 C 157.17206785572017 131.59661848782116 224.0432206042239 C 0.0 **** -0.24
27027 H 157.75015345958445 131.44839427422707 223.13071801778574 H 0.0 **** 0.06
27028 H 157.17633744772166 130.6767264720103 224.62848277000515 H 0.0 **** 0.06
27029 H 156.1464777888525 131.85848096612574 223.78359894521887 H 0.0 **** 0.06
27030 H 157.61662190304298 132.4019272772005 224.62824778655954 H 0.0 **** 0.06
27031 C 296.38178143590176 234.72760673237357 301.5332106204751 C 0.0 **** -0.24
27032 H 297.24068031342495 234.0761190609386 301.69796464147134 H 0.0 **** 0.06
27033 H 296.16668623942235 235.28127111023912 302.44768761169456 H 0.0 **** 0.06
27034 H 295.51642871757883 234.1255955900011 301.25996604606723 H 0.0 **** 0.06
27035 H 296.60695725877133 235.42834488810644 300.72923161831335 H 0.0 **** 0.06
27036 C 196.83219565746128 84.35689998676997 166.02750966853347 C 0.0 **** -0.24
27037 H 196.1063425420612 83.64688608831557 166.4225917665442 H 0.0 **** 0.06
27038 H 197.70442061617769 84.38640941216792 166.6809751746439 H 0.0 **** 0.06
27039 H 196.3813156679658 85.34692426336974 165.9766912919858 H 0.0 **** 0.06
27040 H 197.1374571488634 84.04498524011976 165.02785774402105 H 0.0 **** 0.06
27041 C 61.920797953854986 161.06992960580828 166.62826253125013 C 0.0 **** -0.24
27042 H 61.06301399796169 161.25139125932571 167.2763525760261 H 0.0 **** 0.06
27043 H 61.736169969478766 161.51073880415703 165.648869808303 H 0.0 **** 0.06
27044 H 62.0743030613709 159.9959731182405 166.52141218780713 H 0.0 **** 0.06
27045 H 62.81041447231078 161.52119574421715 167.0687221510616 H 0.0 **** 0.06
27046 C 240.6538914680288 281.56220988676984 128.46743015798052 C 0.0 **** -0.24
27047 H 240.62643436179107 281.89339979289514 127.42906186792075 H 0.0 **** 0.06
27048 H 240.6489646420369 280.47254563286543 128.50088000000088 H 0.0 **** 0.06
27049 H 239.7808918630488 281.94656223238684 128.99449117154532 H 0.0 **** 0.06
27050 H 241.56042989696175 281.9366753921896 128.94340391171414 H 0.0 **** 0.06
27051 C 15.545907786654865 86.98781907335828 104.24396562006567 C 0.0 **** -0.24
27052 H 16.38021624782084 86.30453981900678 104.08624688036474 H 0.0 **** 0.06
27053 H 15.37093965815771 87.5628120017148 103.33409055127953 H 0.0 **** 0.06
27054 H 15.782163145529537 87.66683173791716 105.06290673771542 H 0.0 **** 0.06
27055 H 14.650885425629113 86.41751028268516 104.49139480982731 H 0.0 **** 0.06
27056 C 3.7451072658488442 267.50662477020006 259.0907741739011 C 0.0 **** -0.24
27057 H 4.176534118614583 268.3622133018432 258.57235881935486 H 0.0 **** 0.06
27058 H 4.2296518236304195 266.5920995837913 258.7483963036174 H 0.0 **** 0.06
27059 H 2.6774279689085603 267.4532191264186 258.87842515682735 H 0.0 **** 0.06
27060 H 3.896384145066321 267.6185539805715 260.16519844543757 H 0.0 **** 0.06
27061 C 120.50453575845538 179.360808284938 97.39636821952877 C 0.0 **** -0.24
27062 H 119.67550275950529 178.740120973564 97.73543148122974 H 0.0 **** 0.06
27063 H 120.29955509760319 179.72171409843253 96.38888409123442 H 0.0 **** 0.06
27064 H 121.4220200111912 178.7723674331242 97.39244908344693 H 0.0 **** 0.06
27065 H 120.62075113962152 180.2106090559031 98.07026063855815 H 0.0 **** 0.06
27066 C 202.31505641021988 86.10292092741491 156.75262978768956 C 0.0 **** -0.24
27067 H 202.8011514854021 85.13830302815097 156.6039044037932 H 0.0 **** 0.06
27068 H 201.88229091073725 86.43974629786717 155.8109265224851 H 0.0 **** 0.06
27069 H 203.04991951601716 86.82994299682085 157.09625381157554 H 0.0 **** 0.06
27070 H 201.52763103345802 86.00047027395763 157.4996234232205 H 0.0 **** 0.06
27071 C 138.21840797161204 175.17236796479062 36.0479570814673 C 0.0 **** -0.24
27072 H 137.5352517202152 174.40483339852346 35.68292204201731 H 0.0 **** 0.06
27073 H 137.9822924804191 176.12439617410945 35.57117818157462 H 0.0 **** 0.06
27074 H 139.24345725884496 174.8896976227913 35.807580735250326 H 0.0 **** 0.06
27075 H 138.11267567705437 175.2697423160405 37.12861302543854 H 0.0 **** 0.06
27076 C 52.3389173747172 130.49374104364446 24.84410940589521 C 0.0 **** -0.24
27077 H 52.53692331333974 129.46881258342108 24.531664777119204 H 0.0 **** 0.06
27078 H 51.51429748174655 130.50286222139323 25.556733560220664 H 0.0 **** 0.06
27079 H 52.07435465694539 131.09364871648572 23.97401073493711 H 0.0 **** 0.06
27080 H 53.23126739840433 130.9080214692738 25.313989727698356 H 0.0 **** 0.06
27081 C 41.65308136552258 34.54092083969104 37.903812308709576 C 0.0 **** -0.24
27082 H 42.41225671606338 35.25871931313708 38.21179523207451 H 0.0 **** 0.06
27083 H 41.95133737684054 33.53966128713142 38.2163919224555 H 0.0 **** 0.06
27084 H 41.5482240451156 34.5670709276755 36.81906327489867 H 0.0 **** 0.06
27085 H 40.70008130466596 34.7974008358014 38.36693674903108 H 0.0 **** 0.06
27086 C 123.98376944164946 139.91995518848464 276.0086310197917 C 0.0 **** -0.24
27087 H 123.33324947975046 139.41073598787 276.7201441522564 H 0.0 **** 0.06
27088 H 125.02508747320337 139.74631716837195 276.27987066457456 H 0.0 **** 0.06
27089 H 123.77715392482489 140.98998855446678 276.0278397029591 H 0.0 **** 0.06
27090 H 123.79855057981285 139.53184679608984 275.00643083794984 H 0.0 **** 0.06
27091 C 105.73670512849128 266.0876266696965 28.5403998476379 C 0.0 **** -0.24
27092 H 106.73724766398021 265.9393185878074 28.944132046452694 H 0.0 **** 0.06
27093 H 105.8019588812378 266.6350629107175 27.599861245687407 H 0.0 **** 0.06
27094 H 105.13811498372706 266.6565789613549 29.25165681769343 H 0.0 **** 0.06
27095 H 105.26844944163656 265.1187860910233 28.365383000492756 H 0.0 **** 0.06
27096 C 2.108433283448406 195.3545799742136 206.2805481550805 C 0.0 **** -0.24
27097 H 3.061268878787615 195.8729086510241 206.3930117757385 H 0.0 **** 0.06
27098 H 2.0730710910173826 194.86751808119675 205.30599052297833 H 0.0 **** 0.06
27099 H 1.2930899310791375 196.07385308236366 206.35785768643746 H 0.0 **** 0.06
27100 H 2.0079384747204756 194.605528475538 207.06566533956175 H 0.0 **** 0.06
27101 C 111.5627040059139 112.51541701471584 286.86301485921393 C 0.0 **** -0.24
27102 H 112.20158006716528 113.39830222666848 286.87982051439786 H 0.0 **** 0.06
27103 H 110.9040417393455 112.52606695148452 287.7313592303 H 0.0 **** 0.06
27104 H 112.18224484126503 111.61856906336328 286.886768980129 H 0.0 **** 0.06
27105 H 110.96406631847012 112.51860748381472 285.95193413196506 H 0.0 **** 0.06
27106 C 262.2281033091149 177.07733865259786 52.03949615189083 C 0.0 **** -0.24
27107 H 262.3676648093103 177.40968203693689 53.06856846041393 H 0.0 **** 0.06
27108 H 263.16905996946406 177.17197466175526 51.49659381855531 H 0.0 **** 0.06
27109 H 261.4671743903998 177.69316510406105 51.55924588811894 H 0.0 **** 0.06
27110 H 261.9078345818857 176.03501842209465 52.03471770608712 H 0.0 **** 0.06
27111 C 57.694721015090835 147.15717395215793 97.44237934661027 C 0.0 **** -0.24
27112 H 57.60244169696597 148.1795802487296 97.07771342236654 H 0.0 **** 0.06
27113 H 58.22828962505821 146.5557986311975 96.70659499637927 H 0.0 **** 0.06
27114 H 56.701239665541976 146.73796708198515 97.60361135611723 H 0.0 **** 0.06
27115 H 58.24634149956893 147.15510056220276 98.38286693040342 H 0.0 **** 0.06
27116 C 87.27478618111522 95.02906704108958 162.04653021674602 C 0.0 **** -0.24
27117 H 87.70741134041685 94.29658898093103 161.36442632678273 H 0.0 **** 0.06
27118 H 86.99657749441764 94.53688199027067 162.97864402634679 H 0.0 **** 0.06
27119 H 86.38930288637818 95.4709587555912 161.5896928309087 H 0.0 **** 0.06
27120 H 88.00586420079591 95.810859800954 162.25233682350216 H 0.0 **** 0.06
27121 C 127.70380685731817 88.46856322721646 251.8754908913435 C 0.0 **** -0.24
27122 H 126.96894155973823 88.67317891605413 252.65437840972956 H 0.0 **** 0.06
27123 H 128.3168737797674 87.61541553441819 252.16951694817064 H 0.0 **** 0.06
27124 H 128.33923395559302 89.34250271468548 251.7368852678321 H 0.0 **** 0.06
27125 H 127.1891879409201 88.24141968283143 250.9411079198823 H 0.0 **** 0.06
27126 C 170.29400811895158 151.3724964801301 68.6539105293476 C 0.0 **** -0.24
27127 H 170.14765013876968 150.69636380275972 67.81160874618018 H 0.0 **** 0.06
27128 H 169.36701058988524 151.91169736451053 68.8501892584882 H 0.0 **** 0.06
27129 H 171.08483080489208 152.0847248936086 68.41542672933176 H 0.0 **** 0.06
27130 H 170.57543891502883 150.79952676446447 69.53687754883615 H 0.0 **** 0.06
27131 C 12.760876070496138 201.72733953250355 88.67339542789222 C 0.0 **** -0.24
27132 H 12.358138642365375 202.69412829215696 88.97685615355837 H 0.0 **** 0.06
27133 H 12.209732665550064 201.36057866140857 87.80746600780245 H 0.0 **** 0.06
27134 H 12.661889761638136 201.01867769853106 89.49499110752649 H 0.0 **** 0.06
27135 H 13.814009478277484 201.83874380223853 88.41376402055766 H 0.0 **** 0.06
27136 C 147.14813478666468 250.87132581306076 221.2703944101871 C 0.0 **** -0.24
27137 H 147.8328186544693 250.8286217547627 222.11700867372292 H 0.0 **** 0.06
27138 H 147.0415879029552 249.87559199940654 220.83905662212925 H 0.0 **** 0.06
27139 H 147.54271759988723 251.5533328290745 220.51767521921033 H 0.0 **** 0.06
27140 H 146.17489420083479 251.22770048903772 221.60868896348757 H 0.0 **** 0.06
27141 C 199.60938342888136 199.8075983316869 42.850264170246874 C 0.0 **** -0.24
27142 H 199.50836760406423 200.8654557767058 42.60946388938373 H 0.0 **** 0.06
27143 H 198.6722398736435 199.294859545716 42.63281246151996 H 0.0 **** 0.06
27144 H 199.84721805112378 199.6972139960834 43.90895409061329 H 0.0 **** 0.06
27145 H 200.4101392232974 199.3737291006255 42.250858630685684 H 0.0 **** 0.06
27146 C 277.42344246629074 196.66922415765595 313.49337286066407 C 0.0 **** -0.24
27147 H 277.42622451196866 196.9487278511587 314.54740526056366 H 0.0 **** 0.06
27148 H 276.49924539568104 197.01342083041976 313.02936448333276 H 0.0 **** 0.06
27149 H 277.493005037962 195.58510820758704 313.40569159605786 H 0.0 **** 0.06
27150 H 278.27551144884757 197.13051812408725 312.9938904522518 H 0.0 **** 0.06
27151 C 62.99248756295111 107.15479625805048 91.33462375644632 C 0.0 **** -0.24
27152 H 64.02356235570102 106.849596112956 91.15316577776966 H 0.0 **** 0.06
27153 H 62.682199450979084 107.8610752723485 90.5642143887139 H 0.0 **** 0.06
27154 H 62.92148675401239 107.62846635442486 92.31383919526175 H 0.0 **** 0.06
27155 H 62.34467134514665 106.27802874809205 91.30749008789726 H 0.0 **** 0.06
27156 C 251.24179572242286 15.379179476497072 255.75226019464384 C 0.0 **** -0.24
27157 H 252.1228700405274 16.016035452659708 255.83320995079174 H 0.0 **** 0.06
27158 H 250.60874428899328 15.520930375076276 256.62857744220554 H 0.0 **** 0.06
27159 H 251.5521091417242 14.33573721180747 255.6943536023656 H 0.0 **** 0.06
27160 H 250.68376960056074 15.643001873521996 254.8538366083831 H 0.0 **** 0.06
27161 C 241.45898347354856 86.09484198217001 44.470800495804326 C 0.0 **** -0.24
27162 H 241.2229221199985 87.00501065026867 45.02318024570883 H 0.0 **** 0.06
27163 H 241.2862526888822 85.22814596728614 45.10916516084896 H 0.0 **** 0.06
27164 H 242.50430040372277 86.11799225649838 44.16315796107867 H 0.0 **** 0.06
27165 H 240.82169064350745 86.03000185966931 43.5888084561993 H 0.0 **** 0.06
27166 C 176.55883406054755 121.02560993819395 285.42766676176046 C 0.0 **** -0.24
27167 H 175.68626813441824 120.43628199140244 285.7084863178633 H 0.0 **** 0.06
27168 H 176.23420188197116 121.96160389504874 284.97427112160307 H 0.0 **** 0.06
27169 H 177.16145057530917 120.46439369387636 284.71317392381246 H 0.0 **** 0.06
27170 H 177.15342079306367 121.2388557000032 286.3162517125246 H 0.0 **** 0.06
27171 C 108.03687715904775 228.17881254129978 247.56722083927087 C 0.0 **** -0.24
27172 H 107.82114641285986 227.5118709644748 248.40158738076352 H 0.0 **** 0.06
27173 H 108.79400856023281 228.90289338956754 247.867524543453 H 0.0 **** 0.06
27174 H 107.12600561974264 228.70429394187778 247.2779758001151 H 0.0 **** 0.06
27175 H 108.40417071304324 227.59649335291095 246.72220595316884 H 0.0 **** 0.06
27176 C 63.19383169984792 193.62753415129993 157.60990564225017 C 0.0 **** -0.24
27177 H 64.04542973559427 193.32761641257952 157.00000443618205 H 0.0 **** 0.06
27178 H 62.76822597101125 192.74835168865258 158.09607158255147 H 0.0 **** 0.06
27179 H 62.438715937988775 194.09398000462994 156.9763002389352 H 0.0 **** 0.06
27180 H 63.52245549257705 194.33866256634337 158.36789583398053 H 0.0 **** 0.06
27181 C 266.3135257121283 169.13711796072852 25.792821965091633 C 0.0 **** -0.24
27182 H 265.76750498532687 168.42686130090732 26.412838245656474 H 0.0 **** 0.06
27183 H 266.56784347300095 168.66829030659784 24.84179858953209 H 0.0 **** 0.06
27184 H 267.22722592660233 169.4400677407669 26.30508039887991 H 0.0 **** 0.06
27185 H 265.69187954297115 170.0134457416184 25.610654436704067 H 0.0 **** 0.06
27186 C 291.699961054764 311.5614481707231 231.52987958102855 C 0.0 **** -0.24
27187 H 290.66895330284956 311.839742312908 231.3134477624368 H 0.0 **** 0.06
27188 H 291.7890361019936 311.2891894718664 232.58134103285332 H 0.0 **** 0.06
27189 H 292.35612291116695 312.4056353709548 231.31627962231298 H 0.0 **** 0.06
27190 H 291.98575309513865 310.71345714338395 230.9085894144073 H 0.0 **** 0.06
27191 C 198.81974844119742 111.42225482426292 79.88766545190595 C 0.0 **** -0.24
27192 H 198.2216410013708 111.67047869939447 80.7640236804848 H 0.0 **** 0.06
27193 H 199.7496879594783 110.94911031900858 80.20480599569021 H 0.0 **** 0.06
27194 H 199.0465922016478 112.33162865959844 79.33186289484189 H 0.0 **** 0.06
27195 H 198.26248028570024 110.7361177988206 79.2495412186471 H 0.0 **** 0.06
27196 C 68.00069845302727 241.93105823674807 208.76760820328377 C 0.0 **** -0.24
27197 H 68.34369611179736 241.2356166246472 209.53460294040667 H 0.0 **** 0.06
27198 H 68.5199272165155 241.72449707085462 207.83218032140297 H 0.0 **** 0.06
27199 H 68.2124082884809 242.95264187741378 209.0840132644418 H 0.0 **** 0.06
27200 H 66.92702953201305 241.81083436523176 208.62255435323686 H 0.0 **** 0.06
27201 C 226.44675117057352 240.31005761686265 12.41055750581043 C 0.0 **** -0.24
27202 H 226.65260596709237 239.31537816069866 12.015560125118355 H 0.0 **** 0.06
27203 H 227.19114829059728 241.01091145466876 12.032331149091746 H 0.0 **** 0.06
27204 H 226.49148313145625 240.28500964624283 13.498840095841047 H 0.0 **** 0.06
27205 H 225.45364291523617 240.6272431552663 12.093592722427985 H 0.0 **** 0.06
27206 C 126.91014922571782 127.69562329418372 98.61662727057964 C 0.0 **** -0.24
27207 H 127.04660904270457 126.62538240739283 98.77472381296181 H 0.0 **** 0.06
27208 H 126.35764847322994 128.11906468006572 99.4565675482041 H 0.0 **** 0.06
27209 H 126.35168745774445 127.85840473567157 97.69526089268365 H 0.0 **** 0.06
27210 H 127.88378012710177 128.17837894381742 98.54186635973647 H 0.0 **** 0.06
27211 C 188.4000944894724 133.1141130744011 151.42013507338424 C 0.0 **** -0.24
27212 H 187.44467781083512 132.7328975815475 151.06020026495872 H 0.0 **** 0.06
27213 H 189.16019453723948 132.97082375452126 150.65178655834058 H 0.0 **** 0.06
27214 H 188.68911529957046 132.5767411721488 152.32271789771943 H 0.0 **** 0.06
27215 H 188.30569345348766 134.17664599398935 151.64381472895798 H 0.0 **** 0.06
27216 C 112.56104514905456 96.18228331057756 219.09462062313233 C 0.0 **** -0.24
27217 H 112.84719372396765 97.20827828627313 218.86321696536652 H 0.0 **** 0.06
27218 H 113.07909365894872 95.855751724432 219.99745794161075 H 0.0 **** 0.06
27219 H 112.83658416871324 95.53293384133826 218.2634781163324 H 0.0 **** 0.06
27220 H 111.4844595644133 96.13232635112917 219.2545522542097 H 0.0 **** 0.06
27221 C 47.21577460338324 122.64662567510766 62.46261213637973 C 0.0 **** -0.24
27222 H 48.19269709104924 122.66082692898786 61.97837858555971 H 0.0 **** 0.06
27223 H 46.651120268709406 123.53005811458655 62.165226939280586 H 0.0 **** 0.06
27224 H 47.347227936756525 122.64546231702178 63.54510833594961 H 0.0 **** 0.06
27225 H 46.674999910750756 121.7500421920609 62.16118364498237 H 0.0 **** 0.06
27226 C 182.40283841543362 124.88370442492163 108.33540592335677 C 0.0 **** -0.24
27227 H 182.4832553569846 124.45854638324255 107.33479955391601 H 0.0 **** 0.06
27228 H 182.37653306841185 125.97107346781223 108.26652238469833 H 0.0 **** 0.06
27229 H 183.2633545983158 124.57739721840153 108.9298822832109 H 0.0 **** 0.06
27230 H 181.4887314593741 124.52722317091232 108.80887179613057 H 0.0 **** 0.06
27231 C 313.13827887068464 144.22990784259446 314.31307223205033 C 0.0 **** -0.24
27232 H 312.8449231262156 145.13121317801614 313.7749993292774 H 0.0 **** 0.06
27233 H 312.44222282884823 144.05595538203892 315.13483733644887 H 0.0 **** 0.06
27234 H 314.1450490812785 144.3540932352703 314.7090723216843 H 0.0 **** 0.06
27235 H 313.11743500793864 143.37848258168393 313.63202383928257 H 0.0 **** 0.06
27236 C 286.56867555770447 19.82426219168117 299.29120601381703 C 0.0 **** -0.24
27237 H 286.94574177830174 19.134542785491348 300.04537214236456 H 0.0 **** 0.06
27238 H 286.73918585177665 19.40756647553306 298.2989145917446 H 0.0 **** 0.06
27239 H 287.0889060088871 20.778510948347673 299.37911472702774 H 0.0 **** 0.06
27240 H 285.50022515578814 19.97931071611434 299.44195097981464 H 0.0 **** 0.06
27241 C 215.4774310779556 251.9640068430641 186.89068463261435 C 0.0 **** -0.24
27242 H 215.15194189846767 251.35919814339707 187.7361777277951 H 0.0 **** 0.06
27243 H 216.4944605986226 251.68540110656986 186.6132857297527 H 0.0 **** 0.06
27244 H 215.4524738767724 253.01835225362194 187.1668136697346 H 0.0 **** 0.06
27245 H 214.8107490323386 251.7947205249685 186.04464884963141 H 0.0 **** 0.06
27246 C 50.33064142082486 215.1196055720185 198.01205643248272 C 0.0 **** -0.24
27247 H 50.68524038382037 216.14859987441656 198.05756076669888 H 0.0 **** 0.06
27248 H 51.0830479008406 214.45670677448246 198.43882337250534 H 0.0 **** 0.06
27249 H 50.14980506574375 214.84378253399223 196.97254971295 H 0.0 **** 0.06
27250 H 49.40279160250404 215.02969673278278 198.5770462250104 H 0.0 **** 0.06
27251 C 209.5238956513302 43.12036902984531 163.34638788956192 C 0.0 **** -0.24
27252 H 209.12265726360465 42.43835105061362 162.59644483558992 H 0.0 **** 0.06
27253 H 209.16358728860263 44.130508610176065 163.14943290495927 H 0.0 **** 0.06
27254 H 210.6129196636188 43.10785211342562 163.30215693511758 H 0.0 **** 0.06
27255 H 209.1973815402847 42.803918520381956 164.33635200726565 H 0.0 **** 0.06
27256 C 46.32805678131217 167.5121246782998 57.527566189565704 C 0.0 **** -0.24
27257 H 46.722312595483686 167.27366894231727 58.51531138149326 H 0.0 **** 0.06
27258 H 45.57488199529553 166.7744474912222 57.24940173726196 H 0.0 **** 0.06
27259 H 47.13955799653331 167.49453163467183 56.79975397856154 H 0.0 **** 0.06
27260 H 45.87771132051239 168.50391709304955 57.545289506309274 H 0.0 **** 0.06
27261 C 303.7292102943491 1.2180346364138899 313.99064459715504 C 0.0 **** -0.24
27262 H 303.9187339056173 1.8594375465714847 314.8520326995665 H 0.0 **** 0.06
27263 H 304.0911232794516 0.21111784140627776 314.2019924514551 H 0.0 **** 0.06
27264 H 304.24965492935735 1.616809201254938 313.1200341348268 H 0.0 **** 0.06
27265 H 302.6586743943811 1.1848131192689095 313.7905657040237 H 0.0 **** 0.06
27266 C 97.83837257549624 119.71618668340886 188.04640350915366 C 0.0 **** -0.24
27267 H 97.30081901539711 120.0693947384433 187.16714496695505 H 0.0 **** 0.06
27268 H 97.30660236564614 118.87007674961757 188.4823229702024 H 0.0 **** 0.06
27269 H 97.90620706126609 120.52019960743309 188.77934828956478 H 0.0 **** 0.06
27270 H 98.84202638484564 119.40402320434356 187.7563425726945 H 0.0 **** 0.06
27271 C 270.95363152190254 62.20463525268843 35.78399037242727 C 0.0 **** -0.24
27272 H 271.7954922584785 62.878474150014995 35.9445362932052 H 0.0 **** 0.06
27273 H 270.75020914936033 62.124967754871136 34.71562677200751 H 0.0 **** 0.06
27274 H 270.0734011979601 62.594752641363016 36.294132848540016 H 0.0 **** 0.06
27275 H 271.1972071081538 61.218997922694 36.18165397554583 H 0.0 **** 0.06
27276 C 27.831083264810843 299.2077323467102 34.991103975308135 C 0.0 **** -0.24
27277 H 26.8148096296716 299.5757608060195 35.13382154239474 H 0.0 **** 0.06
27278 H 27.883344406339006 298.6350653146486 34.065735082168004 H 0.0 **** 0.06
27279 H 28.10738246951709 298.56907588480937 35.830731290265476 H 0.0 **** 0.06
27280 H 28.51772035747919 300.05195506539945 34.935535545284694 H 0.0 **** 0.06
27281 C 64.0961869712676 159.79142316714865 128.46490603566227 C 0.0 **** -0.24
27282 H 64.74598377091027 160.40299988226877 127.83857593686477 H 0.0 **** 0.06
27283 H 64.0823791077826 158.76981948706447 128.0842767979893 H 0.0 **** 0.06
27284 H 63.08601510645656 160.1995467779439 128.44846620281706 H 0.0 **** 0.06
27285 H 64.47234641342632 159.79302280599865 129.48827100877654 H 0.0 **** 0.06
27286 C 49.725782881881855 313.0241989216574 50.733459714615464 C 0.0 **** -0.24
27287 H 49.83192446331793 311.96758939387956 50.975981081207436 H 0.0 **** 0.06
27288 H 50.71370521263191 313.4765628201225 50.643222667336005 H 0.0 **** 0.06
27289 H 49.16750743441969 313.52449974131576 51.523889318354776 H 0.0 **** 0.06
27290 H 49.190392913611845 313.1277965549489 49.78943404533999 H 0.0 **** 0.06
27291 C 201.31090414452046 295.1514868671599 143.3777697253272 C 0.0 **** -0.24
27292 H 200.40648862275208 295.7584688527557 143.3522985981713 H 0.0 **** 0.06
27293 H 202.17842971955542 295.7968889642326 143.51850303166844 H 0.0 **** 0.06
27294 H 201.4095909856431 294.60856039662156 142.4374218599653 H 0.0 **** 0.06
27295 H 201.24832524067045 294.4408572710955 144.20273324822597 H 0.0 **** 0.06
27296 C 172.92366343768094 229.73794725314926 69.0740710216725 C 0.0 **** -0.24
27297 H 173.51122865012223 229.05388818425334 69.68710418984529 H 0.0 **** 0.06
27298 H 173.34079876650026 230.74209881027355 69.14962972333373 H 0.0 **** 0.06
27299 H 171.89169011220162 229.74541993507557 69.42582458228722 H 0.0 **** 0.06
27300 H 172.95223425578018 229.40842102477384 68.03558822356183 H 0.0 **** 0.06
27301 C 47.810119507442494 142.71746823363506 127.45247489062197 C 0.0 **** -0.24
27302 H 48.43158429287442 142.5880636020617 126.56646907171222 H 0.0 **** 0.06
27303 H 46.87970033230877 143.21443966560912 127.17351805707855 H 0.0 **** 0.06
27304 H 48.34210126016109 143.3257412815251 128.18412963495368 H 0.0 **** 0.06
27305 H 47.58537091647278 141.74179883171956 127.8840483393507 H 0.0 **** 0.06
27306 C 55.882101126383134 25.25330295780057 150.39204820016244 C 0.0 **** -0.24
27307 H 56.4527777771865 24.343327314249706 150.57439631024755 H 0.0 **** 0.06
27308 H 54.825981094264364 25.06459049946693 150.58394774297005 H 0.0 **** 0.06
27309 H 56.0133873051318 25.563427917704246 149.35578530174485 H 0.0 **** 0.06
27310 H 56.23669717749851 26.04312328367618 151.05585980954817 H 0.0 **** 0.06
27311 C 30.428734552630715 278.3700113088288 223.90234565134244 C 0.0 **** -0.24
27312 H 30.462505108873472 277.43167489724544 224.4557954479441 H 0.0 **** 0.06
27313 H 31.02722142845448 278.27836291090495 222.99605740809184 H 0.0 **** 0.06
27314 H 30.82832073363855 279.17138349546866 224.5229234847604 H 0.0 **** 0.06
27315 H 29.396712045964478 278.5966428322756 223.6348142553929 H 0.0 **** 0.06
27316 C 82.77903278536513 232.60882454095395 95.12240579579111 C 0.0 **** -0.24
27317 H 82.78947233247482 232.62867572184925 94.03310129665255 H 0.0 **** 0.06
27318 H 82.33470909647312 233.53014759719764 95.49773848968414 H 0.0 **** 0.06
27319 H 83.79900384519217 232.51871833119714 95.4938667635239 H 0.0 **** 0.06
27320 H 82.19087282599068 231.75604394593222 95.46403933760166 H 0.0 **** 0.06
27321 C 53.94991584903377 259.5177947116115 237.8902310172827 C 0.0 **** -0.24
27322 H 53.42336374553733 260.2032474814344 238.55389036520364 H 0.0 **** 0.06
27323 H 54.99976828986877 259.4674309509972 238.1783866913384 H 0.0 **** 0.06
27324 H 53.870449541405605 259.87434661921236 236.8628780123894 H 0.0 **** 0.06
27325 H 53.50391600212873 258.526231299333 237.9663196829046 H 0.0 **** 0.06
27326 C 213.3213800915456 185.61207974469738 34.71569550420722 C 0.0 **** -0.24
27327 H 213.47779048852146 185.33563977061613 35.75845486233598 H 0.0 **** 0.06
27328 H 213.60699329134258 184.7792547319682 34.07201316445747 H 0.0 **** 0.06
27329 H 213.93250020312772 186.48319671326095 34.47557512886843 H 0.0 **** 0.06
27330 H 212.26983555663276 185.8506643050407 34.55724094563101 H 0.0 **** 0.06
27331 C 296.0260787594796 176.90698279511844 236.81007767736747 C 0.0 **** -0.24
27332 H 295.0202284990468 176.78567743122983 237.21359300235233 H 0.0 **** 0.06
27333 H 296.7067513019111 176.22446361999778 237.31978231665778 H 0.0 **** 0.06
27334 H 296.35788965438536 177.93372890233263 236.96367556265506 H 0.0 **** 0.06
27335 H 296.01714889490586 176.68322662700695 235.74309042956634 H 0.0 **** 0.06
27336 C 308.4159650918415 23.777994588993153 44.395677115654195 C 0.0 **** -0.24
27337 H 308.90116707983134 22.805449884810514 44.313268505993136 H 0.0 **** 0.06
27338 H 308.31808625745947 24.04622199001264 45.44737105532474 H 0.0 **** 0.06
27339 H 307.4273591151365 23.73021898336563 43.938905766946334 H 0.0 **** 0.06
27340 H 309.0171882435453 24.528570138994496 43.88186156620563 H 0.0 **** 0.06
27341 C 12.99444692072943 98.72806557692775 243.54205936274911 C 0.0 **** -0.24
27342 H 12.611330761629048 99.69606014584366 243.86541810200353 H 0.0 **** 0.06
27343 H 12.63970055567448 97.95206526487678 244.2207521390207 H 0.0 **** 0.06
27344 H 14.084005167841354 98.7474976266704 243.54917055928027 H 0.0 **** 0.06
27345 H 12.642305319126152 98.51741217223821 242.53244518711602 H 0.0 **** 0.06
27346 C 9.672182774356756 295.40026785349284 302.9952954340632 C 0.0 **** -0.24
27347 H 9.811743086123045 294.5606807560365 303.67755695506514 H 0.0 **** 0.06
27348 H 10.495002583630637 296.1058688616587 303.11441358192474 H 0.0 **** 0.06
27349 H 8.730124029841335 295.8992890080793 303.22261582340207 H 0.0 **** 0.06
27350 H 9.65152501148971 295.0338403057097 301.96958667763175 H 0.0 **** 0.06
27351 C 9.018852336076066 32.42416897099679 244.09860963590523 C 0.0 **** -0.24
27352 H 8.715232832804773 33.28451409546619 243.50307978009033 H 0.0 **** 0.06
27353 H 9.84636229945015 31.914242107639893 243.60481999765426 H 0.0 **** 0.06
27354 H 8.177145506092842 31.73836640740882 244.20078503009822 H 0.0 **** 0.06
27355 H 9.335755332714527 32.75993021718182 245.0859075774625 H 0.0 **** 0.06
27356 C 264.72078999755007 239.86006937832354 15.310675885697378 C 0.0 **** -0.24
27357 H 264.1397223644223 240.02690863473418 14.40340281736546 H 0.0 **** 0.06
27358 H 264.73642310344155 240.77425054554556 15.904671468668866 H 0.0 **** 0.06
27359 H 265.7398540149014 239.5818505022104 15.043750556906616 H 0.0 **** 0.06
27360 H 264.2650285073968 239.05669081249724 15.890529918792481 H 0.0 **** 0.06
27361 C 183.65526738989638 128.87867998308502 36.73748138160681 C 0.0 **** -0.24
27362 H 183.99342792278782 127.87464869598548 36.47997413639166 H 0.0 **** 0.06
27363 H 183.3799148345638 128.90938177588976 37.791334652620435 H 0.0 **** 0.06
27364 H 182.7899364020971 129.13721014720952 36.12710871992431 H 0.0 **** 0.06
27365 H 184.45826004671483 129.59083097165563 36.55017919869567 H 0.0 **** 0.06
27366 C 178.96641343176793 217.1811836464917 286.16623060944033 C 0.0 **** -0.24
27367 H 179.8690735832269 217.7915608160508 286.1864965976223 H 0.0 **** 0.06
27368 H 178.85289622814634 216.66673628095177 287.12051887982267 H 0.0 **** 0.06
27369 H 179.04334555605482 216.4465256414432 285.36385823962326 H 0.0 **** 0.06
27370 H 178.10049072668136 217.82011118529908 285.99265693847525 H 0.0 **** 0.06
27371 C 195.84044684154765 54.4073739714849 248.2081709590325 C 0.0 **** -0.24
27372 H 196.4124720531255 53.637224440924484 247.69035322128016 H 0.0 **** 0.06
27373 H 195.00023076949373 53.94655522364707 248.72929128281964 H 0.0 **** 0.06
27374 H 195.4651158269407 55.130118841674374 247.4830110894322 H 0.0 **** 0.06
27375 H 196.48178449668495 54.91455830938739 248.92856210749153 H 0.0 **** 0.06
27376 C 272.5311628256456 107.85953265787742 284.43616701444785 C 0.0 **** -0.24
27377 H 272.65994727992677 107.02833894203067 285.13024044426953 H 0.0 **** 0.06
27378 H 273.1039469828055 107.66652057853656 283.52908157379596 H 0.0 **** 0.06
27379 H 272.88473638809876 108.77856533301983 284.90163883934906 H 0.0 **** 0.06
27380 H 271.47516594158344 107.96187005102306 284.18550391335197 H 0.0 **** 0.06
27381 C 72.7491710676087 169.272051569244 165.26351038795605 C 0.0 **** -0.24
27382 H 73.27966600989836 170.09427985602366 165.74379167095543 H 0.0 **** 0.06
27383 H 71.977618920221 169.6718125859088 164.60561239997645 H 0.0 **** 0.06
27384 H 72.28780702054672 168.64396341249665 166.025914372511 H 0.0 **** 0.06
27385 H 73.45305921577244 168.67748437753482 164.68125384753858 H 0.0 **** 0.06
27386 C 271.88564877256096 229.99593672135936 110.27471565777245 C 0.0 **** -0.24
27387 H 272.6470828220914 229.37481763754738 110.74689001514338 H 0.0 **** 0.06
27388 H 272.1387961641924 230.14791714066163 109.22594652413119 H 0.0 **** 0.06
27389 H 271.8388885253968 230.95958961753377 110.78186151894667 H 0.0 **** 0.06
27390 H 270.91765534366823 229.4996388715292 110.34729332660109 H 0.0 **** 0.06
27391 C 89.49100171264581 100.2457825929963 121.77307388573928 C 0.0 **** -0.24
27392 H 88.45917204550886 99.90703025021904 121.68515498017422 H 0.0 **** 0.06
27393 H 89.51117248837016 101.2330430462689 122.23592298926192 H 0.0 **** 0.06
27394 H 89.94121590621143 100.29975002129592 120.7812260888308 H 0.0 **** 0.06
27395 H 90.0524464104929 99.5433070542013 122.38999148469003 H 0.0 **** 0.06
27396 C 148.69067155173735 119.61015379327884 173.30222189428667 C 0.0 **** -0.24
27397 H 147.71628949094068 119.55669327543046 173.78871231186224 H 0.0 **** 0.06
27398 H 148.69362437649508 118.96628437056089 172.42211576316765 H 0.0 **** 0.06
27399 H 149.4617729547864 119.27851717080088 173.99760892822735 H 0.0 **** 0.06
27400 H 148.89061087913024 120.63852426900985 173.00167276549547 H 0.0 **** 0.06
27401 C 215.77254634241766 278.7217802883489 231.1493586458861 C 0.0 **** -0.24
27402 H 216.4825494438948 279.28295633149014 231.7575168472916 H 0.0 **** 0.06
27403 H 215.96822107567834 278.9133082197799 230.09407347001212 H 0.0 **** 0.06
27404 H 214.75779590815668 279.03609691617 231.39452382675648 H 0.0 **** 0.06
27405 H 215.88283006865527 277.65683019625874 231.35338107147354 H 0.0 **** 0.06
27406 C 154.9971059885222 2.4417639087522502 111.55659009511223 C 0.0 **** -0.24
27407 H 155.6204659229537 2.142057597235805 112.39861970612964 H 0.0 **** 0.06
27408 H 155.63007374697463 2.8137766247004947 110.75029070243136 H 0.0 **** 0.06
27409 H 154.31278898290884 3.2295384443186776 111.87317637308198 H 0.0 **** 0.06
27410 H 154.42514297988572 1.5840106381904207 111.20351221272765 H 0.0 **** 0.06
27411 C 242.35898144250052 119.78930271475025 34.312491552595475 C 0.0 **** -0.24
27412 H 242.21684320705944 120.17743714333338 33.30327069318918 H 0.0 **** 0.06
27413 H 241.85146012379505 120.43970841805913 35.025384872346535 H 0.0 **** 0.06
27414 H 243.42415803846853 119.75828118481277 34.54144533283781 H 0.0 **** 0.06
27415 H 241.9438750918504 118.7841176576857 34.37594281336959 H 0.0 **** 0.06
27416 C 53.42140914941771 172.51846485415223 34.59482993381209 C 0.0 **** -0.24
27417 H 54.38831685420297 172.84189737486832 34.982627887693354 H 0.0 **** 0.06
27418 H 53.511880612713725 171.5089894334904 34.19265877218476 H 0.0 **** 0.06
27419 H 53.102193076395764 173.19758511342252 33.80394933325715 H 0.0 **** 0.06
27420 H 52.68681096555608 172.52596834328637 35.39910696871948 H 0.0 **** 0.06
27421 C 29.013019237416955 78.30487201927443 2.252369054353906 C 0.0 **** -0.24
27422 H 29.298223645244832 77.65099633982081 1.428354861163669 H 0.0 **** 0.06
27423 H 29.28059440511069 77.83595273403523 3.1990181875400054 H 0.0 **** 0.06
27424 H 27.937197179112474 78.47758276891139 2.2234511434989486 H 0.0 **** 0.06
27425 H 29.536102903034305 79.25684110992603 2.1574497064210902 H 0.0 **** 0.06
27426 C 47.917735312215655 39.688628018044085 36.97427133684738 C 0.0 **** -0.24
27427 H 47.650494752543295 38.85620376034112 37.625116700736925 H 0.0 **** 0.06
27428 H 48.93481176317755 40.011432353490136 37.19617267278022 H 0.0 **** 0.06
27429 H 47.22790982212996 40.51605469764465 37.140554929673584 H 0.0 **** 0.06
27430 H 47.856580786227596 39.36869680243359 35.933458434853804 H 0.0 **** 0.06
27431 C 5.579032025907907 84.41640637050295 283.3503455868701 C 0.0 **** -0.24
27432 H 5.594568499421484 83.9805307103143 284.3486177796191 H 0.0 **** 0.06
27433 H 4.762608195477696 83.98026567861541 282.77587646674436 H 0.0 **** 0.06
27434 H 6.526123372457107 84.21122743919352 282.8501876693135 H 0.0 **** 0.06
27435 H 5.435003545493942 85.4936637460672 283.4272135854991 H 0.0 **** 0.06
27436 C 196.21530701640978 155.33531004605118 142.107927932942 C 0.0 **** -0.24
27437 H 196.63366563831272 154.37043851633 141.82100399604815 H 0.0 **** 0.06
27438 H 196.92083679502468 156.12628686398546 141.85680296879994 H 0.0 **** 0.06
27439 H 196.02562201268773 155.34364988089663 143.1809076126214 H 0.0 **** 0.06
27440 H 195.27993395961857 155.49833196570188 141.5725323329543 H 0.0 **** 0.06
27441 C 208.07104680438255 148.24201642479395 107.6073572597544 C 0.0 **** -0.24
27442 H 207.67662130758595 148.07777058343888 108.61034937487398 H 0.0 **** 0.06
27443 H 208.29540502980416 149.30078623137445 107.47458588801095 H 0.0 **** 0.06
27444 H 207.32947994302714 147.93257298420727 106.8703669610116 H 0.0 **** 0.06
27445 H 208.98152896758927 147.6574900923954 107.47473166732058 H 0.0 **** 0.06
27446 C 249.3955653290842 100.10914379919873 107.2875539165922 C 0.0 **** -0.24
27447 H 249.65683297548728 100.24725440938025 106.23839042783771 H 0.0 **** 0.06
27448 H 249.93212748603062 100.83881834915192 107.8946374827515 H 0.0 **** 0.06
27449 H 249.66964647100912 99.10187767954048 107.60060158066008 H 0.0 **** 0.06
27450 H 248.32216666391506 100.25001161033202 107.41522112598298 H 0.0 **** 0.06
27451 C 160.9750119211169 20.259029387770696 249.7650968020643 C 0.0 **** -0.24
27452 H 161.35489074922714 20.636989097677628 250.71409621304733 H 0.0 **** 0.06
27453 H 161.77273900901963 20.275009654492493 249.02247746871427 H 0.0 **** 0.06
27454 H 160.15004891722856 20.88661764322586 249.42810515040964 H 0.0 **** 0.06
27455 H 160.62232183301563 19.235782914737015 249.89816712841025 H 0.0 **** 0.06
27456 C 49.82089327888809 195.70233875009103 13.37370724959544 C 0.0 **** -0.24
27457 H 50.03985519467827 196.7692632739857 13.407796642062323 H 0.0 **** 0.06
27458 H 49.92243421069867 195.27834006498978 14.37367270537834 H 0.0 **** 0.06
27459 H 50.51853993630837 195.20900595113585 12.697485956320293 H 0.0 **** 0.06
27460 H 48.80156882987936 195.5512758802306 13.017441857032438 H 0.0 **** 0.06
27461 C 201.57722172591832 160.74445070024314 291.90706393593103 C 0.0 **** -0.24
27462 H 201.32899283256444 160.5090662260377 290.8725969662122 H 0.0 **** 0.06
27463 H 202.6588352300672 160.71129951399445 292.0373197448739 H 0.0 **** 0.06
27464 H 201.10923260136053 160.0143489519258 292.56803895070794 H 0.0 **** 0.06
27465 H 201.21079339461897 161.7417287637595 292.15059235759475 H 0.0 **** 0.06
27466 C 293.16410793984835 83.72647806460938 268.3446385381783 C 0.0 **** -0.24
27467 H 293.24349310990806 82.6880477323133 268.66506292258276 H 0.0 **** 0.06
27468 H 293.1660045363784 84.37799449846494 269.2193225358565 H 0.0 **** 0.06
27469 H 292.2357537494022 83.86573707291646 267.7899415223901 H 0.0 **** 0.06
27470 H 294.0110604221519 83.97511496700304 267.70408132796774 H 0.0 **** 0.06
27471 C 128.275027252521 70.68440941984477 200.7185266466654 C 0.0 **** -0.24
27472 H 127.45245688022132 69.9752066445921 200.63173522012204 H 0.0 **** 0.06
27473 H 127.87600407082118 71.68395281557085 200.8943329476753 H 0.0 **** 0.06
27474 H 128.85640840209587 70.68140294498167 199.7959594270784 H 0.0 **** 0.06
27475 H 128.91648817030557 70.3977016258554 201.55185784241877 H 0.0 **** 0.06
27476 C 157.94283333561447 294.19899334012337 116.67855446458242 C 0.0 **** -0.24
27477 H 158.97884619466026 294.01277595818016 116.39683334506745 H 0.0 **** 0.06
27478 H 157.67262637552807 293.5546967755937 117.51535759961436 H 0.0 **** 0.06
27479 H 157.29231780536065 293.9870566675907 115.83103412033554 H 0.0 **** 0.06
27480 H 157.8288245885687 295.24337879155894 116.97260955099736 H 0.0 **** 0.06
27481 C 56.674873673078196 0.740016940046516 278.58483877926494 C 0.0 **** -0.24
27482 H 55.93727745367721 0.9581006101045801 279.35793042015894 H 0.0 **** 0.06
27483 H 56.28625702227862 -0.032986346373562014 277.9200889177273 H 0.0 **** 0.06
27484 H 57.595718168791166 0.3899749610829275 279.05021966944054 H 0.0 **** 0.06
27485 H 56.87787670475723 1.644354094068575 278.01099260477713 H 0.0 **** 0.06
27486 C 280.87747325574526 242.45440417632165 101.30548446995002 C 0.0 **** -0.24
27487 H 280.4279681726903 241.46218191962353 101.27350758423134 H 0.0 **** 0.06
27488 H 281.1863447434831 242.68045816587875 102.3268371782923 H 0.0 **** 0.06
27489 H 280.1484000929139 243.19464982098697 100.97464151228928 H 0.0 **** 0.06
27490 H 281.7462045884489 242.48128924273547 100.64871859943602 H 0.0 **** 0.06
27491 C 213.1958328536011 139.24099923995814 7.426804967322511 C 0.0 **** -0.24
27492 H 212.73065164500247 138.2719148733431 7.247614338798115 H 0.0 **** 0.06
27493 H 214.14069940519005 139.29569056034418 6.884171187855657 H 0.0 **** 0.06
27494 H 213.3822592568147 139.36313298320886 8.494002651468591 H 0.0 **** 0.06
27495 H 212.5318847941366 140.03288782347923 7.081006192292904 H 0.0 **** 0.06
27496 C 258.7093594639886 188.28397206150146 68.366613070635 C 0.0 **** -0.24
27497 H 259.2848523783574 188.43936039235405 69.27998962431127 H 0.0 **** 0.06
27498 H 259.0298347671599 187.35703854290603 67.8887593359076 H 0.0 **** 0.06
27499 H 258.8747065960349 189.1195000252589 67.68735414212736 H 0.0 **** 0.06
27500 H 257.6495662906921 188.21891448983718 68.61309287171906 H 0.0 **** 0.06
27501 C 2.700516761837406 86.30142725757091 111.57298053147434 C 0.0 **** -0.24
27502 H 3.2251141629733127 85.9623256833286 112.46676688360753 H 0.0 **** 0.06
27503 H 1.8074764383835884 85.69271356204024 111.4242627557652 H 0.0 **** 0.06
27504 H 3.3565089911519124 86.20372124536001 110.708304246583 H 0.0 **** 0.06
27505 H 2.4126329433783127 87.34511116754771 111.69493604885966 H 0.0 **** 0.06
27506 C 245.666387436339 53.63269368491797 108.41378010886146 C 0.0 **** -0.24
27507 H 245.17940677992362 53.205343488879635 107.53771390336217 H 0.0 **** 0.06
27508 H 244.91621973757572 54.08126505989014 109.06492025855968 H 0.0 **** 0.06
27509 H 246.37736449657723 54.39599355201767 108.0974254296477 H 0.0 **** 0.06
27510 H 246.19479199411643 52.84721182769397 108.95476183555775 H 0.0 **** 0.06
27511 C 274.4105215278799 198.16012611910264 192.02544511512832 C 0.0 **** -0.24
27512 H 275.3751655754601 197.69624104537786 191.82132542821114 H 0.0 **** 0.06
27513 H 273.96018869689016 198.48818566648578 191.0878675818958 H 0.0 **** 0.06
27514 H 274.55247211122486 199.0199783479058 192.68069280096677 H 0.0 **** 0.06
27515 H 273.75586397691336 197.43724642389782 192.51044179479544 H 0.0 **** 0.06
27516 C 236.8801148454575 172.5254936878129 7.790887821576291 C 0.0 **** -0.24
27517 H 237.67828472385776 172.61648515230485 8.528891044540217 H 0.0 **** 0.06
27518 H 237.28600343051272 172.11721285908783 6.865164551527798 H 0.0 **** 0.06
27519 H 236.45205275278198 173.50944240144912 7.597729527965669 H 0.0 **** 0.06
27520 H 236.1065462571101 171.86057474197952 8.174019366859568 H 0.0 **** 0.06
27521 C 247.60170143702723 69.61582299068183 153.61757142479797 C 0.0 **** -0.24
27522 H 247.50117544246766 68.56391639922066 153.8847855651647 H 0.0 **** 0.06
27523 H 247.55433566119802 70.2261579173018 154.51920056624135 H 0.0 **** 0.06
27524 H 246.79154124883772 69.89817432425232 152.9439479752985 H 0.0 **** 0.06
27525 H 248.55846479240685 69.7736869975536 153.1211268849973 H 0.0 **** 0.06
27526 C 100.21339819510868 139.35283245343544 183.53644186468432 C 0.0 **** -0.24
27527 H 101.07369170343861 139.8227496889206 184.01380883508608 H 0.0 **** 0.06
27528 H 100.29969197528382 139.45196948819301 182.45459918675732 H 0.0 **** 0.06
27529 H 99.29910831306935 139.8400489775033 183.87434631484518 H 0.0 **** 0.06
27530 H 100.18345395277916 138.29699110276357 183.80354059122033 H 0.0 **** 0.06
27531 C 302.0618458387678 235.86927410570854 16.82190049069422 C 0.0 **** -0.24
27532 H 301.78293879696224 235.79209497000517 17.87217359194321 H 0.0 **** 0.06
27533 H 301.84844078912386 234.9261578024583 16.319142823623096 H 0.0 **** 0.06
27534 H 303.1255701954305 236.0912453650374 16.74374937074657 H 0.0 **** 0.06
27535 H 301.48836840277494 236.66831402909727 16.35206415630583 H 0.0 **** 0.06
27536 C 157.6673523151573 19.59466121804718 149.9031818707724 C 0.0 **** -0.24
27537 H 157.3523550155552 19.78472620581954 148.87696388551342 H 0.0 **** 0.06
27538 H 157.1860304252885 18.68715631293702 150.26795911287724 H 0.0 **** 0.06
27539 H 157.38044142573 20.43662394819995 150.53235771893026 H 0.0 **** 0.06
27540 H 158.7498758568849 19.47005039810648 149.9331030322109 H 0.0 **** 0.06
27541 C 72.21613172540742 51.67780868208288 120.08697224688515 C 0.0 **** -0.24
27542 H 71.22140100953092 51.27503961370297 120.27980179327207 H 0.0 **** 0.06
27543 H 72.95869544782008 50.89207443540755 120.22233899760488 H 0.0 **** 0.06
27544 H 72.41789096975137 52.493218304741106 120.78193894154197 H 0.0 **** 0.06
27545 H 72.26341191008311 52.050808927580135 119.06426713431344 H 0.0 **** 0.06
27546 C 76.23106303897742 168.76605932307496 237.70161582111314 C 0.0 **** -0.24
27547 H 75.95361872189457 168.5174603386326 238.7255296561715 H 0.0 **** 0.06
27548 H 77.0972091789937 168.17320443414656 237.40566261530685 H 0.0 **** 0.06
27549 H 76.47769390008398 169.82637080513803 237.63989764817046 H 0.0 **** 0.06
27550 H 75.39690121725374 168.5484247257167 237.03573851986891 H 0.0 **** 0.06
27551 C 104.42278634969793 23.262174040252347 166.3750529302178 C 0.0 **** -0.24
27552 H 104.83274057429011 23.255047940063974 165.36518259116627 H 0.0 **** 0.06
27553 H 103.44753139883275 22.7749906703458 166.37382961422372 H 0.0 **** 0.06
27554 H 104.31483255442572 24.291841481114915 166.71544430437746 H 0.0 **** 0.06
27555 H 105.09651720483151 22.725705726956306 167.04362441951383 H 0.0 **** 0.06
27556 C 237.65416780876768 245.44674290974106 267.54462223453095 C 0.0 **** -0.24
27557 H 236.65779228619496 245.6886938644418 267.1743103322403 H 0.0 **** 0.06
27558 H 238.3873577464186 246.09121233793414 267.059761408185 H 0.0 **** 0.06
27559 H 237.88058491380588 244.4041270060585 267.31961839979795 H 0.0 **** 0.06
27560 H 237.68792989980665 245.60130842092232 268.6224955889771 H 0.0 **** 0.06
27561 C 312.0708579101056 26.220721002846517 180.7501627321493 C 0.0 **** -0.24
27562 H 311.50421944615346 25.308977542082687 180.9443432452971 H 0.0 **** 0.06
27563 H 313.05597397787545 26.139418346666616 181.20830196414715 H 0.0 **** 0.06
27564 H 311.5411885427627 27.074410587821944 181.17369172347173 H 0.0 **** 0.06
27565 H 312.17928548966984 26.357018237767818 179.67430592368083 H 0.0 **** 0.06
27566 C 220.39157282535848 303.74869586845386 175.23901176735137 C 0.0 **** -0.24
27567 H 221.42430510279215 304.0970567057723 175.28000111627682 H 0.0 **** 0.06
27568 H 220.36654653096713 302.6704003278615 175.40128859496042 H 0.0 **** 0.06
27569 H 219.96922356896857 303.9796940315587 174.26088482984704 H 0.0 **** 0.06
27570 H 219.80943818320532 304.24694567333177 176.0142554325551 H 0.0 **** 0.06
27571 C 174.99198492919726 86.32106575630888 163.20435091195577 C 0.0 **** -0.24
27572 H 175.62232369848334 86.12838464422865 164.07179161283267 H 0.0 **** 0.06
27573 H 174.7241515772879 87.37798769847163 163.17771146485165 H 0.0 **** 0.06
27574 H 174.08637637049122 85.71807810186479 163.2724859110569 H 0.0 **** 0.06
27575 H 175.53457836988588 86.05992159613112 162.29626807890202 H 0.0 **** 0.06
27576 C 3.5059889778972035 272.5151349545604 63.731856501428354 C 0.0 **** -0.24
27577 H 2.452715185984701 272.79567199791927 63.738901830919644 H 0.0 **** 0.06
27578 H 3.7983587697313226 272.17940570586984 64.72728913638724 H 0.0 **** 0.06
27579 H 4.109316370211673 273.37699053623567 63.44694886136034 H 0.0 **** 0.06
27580 H 3.66174784642169 271.7088357095569 63.01588719529798 H 0.0 **** 0.06
27581 C 265.77238341220306 253.5861236653842 234.71950004569817 C 0.0 **** -0.24
27582 H 265.38500354342375 252.6006272760252 234.97571294233467 H 0.0 **** 0.06
27583 H 266.32588808640924 253.99028640726965 235.56670450791418 H 0.0 **** 0.06
27584 H 264.94313730578295 254.2499815256893 234.4766297452969 H 0.0 **** 0.06
27585 H 266.4356007543764 253.50228244024856 233.85844676230838 H 0.0 **** 0.06
27586 C 295.90992535820425 180.43137825635705 175.6799030213627 C 0.0 **** -0.24
27587 H 296.073720027866 179.3738454829467 175.88414572984271 H 0.0 **** 0.06
27588 H 296.7351041033278 181.01323017515517 176.09210775071574 H 0.0 **** 0.06
27589 H 294.97470260116825 180.75038555855758 176.14083695290873 H 0.0 **** 0.06
27590 H 295.85676215308916 180.58932011119282 174.60230643727635 H 0.0 **** 0.06
27591 C 169.98000731003947 283.1179541064537 63.143028346508686 C 0.0 **** -0.24
27592 H 170.77088559634018 282.5630699358203 63.64623947182585 H 0.0 **** 0.06
27593 H 169.03537169380672 282.9559233921609 63.66239233364436 H 0.0 **** 0.06
27594 H 169.89355341090766 282.7724121420938 62.11308086135986 H 0.0 **** 0.06
27595 H 170.22119164929535 284.1813949035065 63.150109321963015 H 0.0 **** 0.06
27596 C 239.7610286530121 277.0472187980829 150.600317355083 C 0.0 **** -0.24
27597 H 238.89186617138355 277.1839596443601 149.95558417059914 H 0.0 **** 0.06
27598 H 239.43931719087394 277.0192970203044 151.64167102318322 H 0.0 **** 0.06
27599 H 240.45297484886038 277.8771418421482 150.45637794518137 H 0.0 **** 0.06
27600 H 240.2571393780684 276.1112376966299 150.3464357496572 H 0.0 **** 0.06
27601 C 183.1524865644812 288.1321095529737 259.6262878808325 C 0.0 **** -0.24
27602 H 183.4153172548082 287.1407620252131 259.9958125196577 H 0.0 **** 0.06
27603 H 184.06186827946402 288.7141754718573 259.47324371268076 H 0.0 **** 0.06
27604 H 182.5173627552084 288.6346105332315 260.357073670198 H 0.0 **** 0.06
27605 H 182.61660584652543 288.0381871199547 258.68249247053296 H 0.0 **** 0.06
27606 C 13.253722752525405 179.64291623225836 251.8923630931157 C 0.0 **** -0.24
27607 H 13.758629587966169 178.87095782354402 252.47384022643382 H 0.0 **** 0.06
27608 H 12.890124290830045 180.42235433639706 252.56295071328364 H 0.0 **** 0.06
27609 H 12.41367910368264 179.20228856691995 251.35570186170625 H 0.0 **** 0.06
27610 H 13.954862201772372 180.07502146532613 251.178729512156 H 0.0 **** 0.06
27611 C 304.1138249622052 42.89335746423629 16.826871581429174 C 0.0 **** -0.24
27612 H 303.7801587248637 43.0949699506715 17.845326588975723 H 0.0 **** 0.06
27613 H 305.1687735817363 42.618959592488494 16.839019388780457 H 0.0 **** 0.06
27614 H 303.9765952873954 43.78568112237724 16.216652889128085 H 0.0 **** 0.06
27615 H 303.529355049603 42.07392315870834 16.40868180454757 H 0.0 **** 0.06
27616 C 34.33992198189287 136.49234343690108 37.51381773462208 C 0.0 **** -0.24
27617 H 33.80161005255388 135.62343477226375 37.893881353335814 H 0.0 **** 0.06
27618 H 34.26155068734076 136.52169508607352 36.42687579855965 H 0.0 **** 0.06
27619 H 35.388690452137695 136.4221184427667 37.80197133074057 H 0.0 **** 0.06
27620 H 33.9071407403556 137.39972954378482 37.93472769964069 H 0.0 **** 0.06
27621 C 198.10612758882024 14.817736361304583 94.01967179166323 C 0.0 **** -0.24
27622 H 197.93819043694435 13.831738241922096 93.58594817762267 H 0.0 **** 0.06
27623 H 197.5544869199976 15.564780087295944 93.44821348373605 H 0.0 **** 0.06
27624 H 199.1699082080524 15.050590297324874 93.99156161586774 H 0.0 **** 0.06
27625 H 197.76003366347226 14.823159794805704 95.05394638653411 H 0.0 **** 0.06
27626 C 102.46637043476488 182.05215641493675 31.058869511676306 C 0.0 **** -0.24
27627 H 102.10352327268171 183.0550122953601 30.838070143177532 H 0.0 **** 0.06
27628 H 101.95915397436087 181.33206647789933 30.41644652280678 H 0.0 **** 0.06
27629 H 102.26314683008945 181.81351118980348 32.10242831174463 H 0.0 **** 0.06
27630 H 103.54098597244038 182.00655165340237 30.878350792453006 H 0.0 **** 0.06
27631 C 312.15122042740074 208.7008798789027 117.00600738030275 C 0.0 **** -0.24
27632 H 311.76032828121237 207.90467107979214 117.6399050300221 H 0.0 **** 0.06
27633 H 311.32734894180317 209.17923702478473 116.47504074057278 H 0.0 **** 0.06
27634 H 312.85306353410965 208.27967326971788 116.28508463603211 H 0.0 **** 0.06
27635 H 312.66338620118114 209.4387447876009 117.62391995401023 H 0.0 **** 0.06
27636 C 261.7799753286935 243.8317620927688 50.73108019093365 C 0.0 **** -0.24
27637 H 262.6071771278629 243.69367362105402 51.42656498770782 H 0.0 **** 0.06
27638 H 261.9150296792571 243.17699873043944 49.869712316376194 H 0.0 **** 0.06
27639 H 261.75405220276076 244.86940522646088 50.39874140696077 H 0.0 **** 0.06
27640 H 260.8420536398336 243.58732102128585 51.229896608884815 H 0.0 **** 0.06
27641 C 25.87709816460324 74.67126463214768 146.39479989769072 C 0.0 **** -0.24
27642 H 25.76940747669329 74.12523695453581 145.45724784907446 H 0.0 **** 0.06
27643 H 26.930807939797944 74.89364037732213 146.56553680400737 H 0.0 **** 0.06
27644 H 25.4962462238166 74.0619334671346 147.2148692141719 H 0.0 **** 0.06
27645 H 25.311863889375786 75.60198152620688 146.34061844634454 H 0.0 **** 0.06
27646 C 278.73539322690124 275.9230698464529 290.00315045470086 C 0.0 **** -0.24
27647 H 279.12230418202523 276.4308559121258 289.11895614355876 H 0.0 **** 0.06
27648 H 278.1690055054404 276.63018548013883 290.6092690733715 H 0.0 **** 0.06
27649 H 279.5669967438975 275.5285389852781 290.5878036375844 H 0.0 **** 0.06
27650 H 278.0854865219249 275.10370043330283 289.69631110156996 H 0.0 **** 0.06
27651 C 117.15304420929542 9.08061614793796 247.93782837776382 C 0.0 **** -0.24
27652 H 116.07892887251018 8.970713052873123 247.79253592248747 H 0.0 **** 0.06
27653 H 117.33992446177115 9.667106731397325 248.83696458171863 H 0.0 **** 0.06
27654 H 117.58617313783952 9.589412156387311 247.07601557447828 H 0.0 **** 0.06
27655 H 117.60847958349004 8.096148629586565 248.0432687563744 H 0.0 **** 0.06
27656 C 275.174195800064 62.52610492337163 182.69883099276882 C 0.0 **** -0.24
27657 H 274.45120792058793 62.55989872836787 183.51372292052048 H 0.0 **** 0.06
27658 H 274.87878162284136 63.231738068792595 181.92213820959273 H 0.0 **** 0.06
27659 H 275.20556026344065 61.51924613163084 182.28265916146063 H 0.0 **** 0.06
27660 H 276.160584164701 62.79381369303272 183.07751207015133 H 0.0 **** 0.06
27661 C 212.2798469501523 183.31332694610774 123.25832472975915 C 0.0 **** -0.24
27662 H 211.64974486482586 184.00483281381184 122.6998318090067 H 0.0 **** 0.06
27663 H 212.47136361037903 182.42715805675488 122.65246878768968 H 0.0 **** 0.06
27664 H 211.77368564783163 183.02199289202662 124.17914369072227 H 0.0 **** 0.06
27665 H 213.2252454165287 183.7986183194903 123.50081673492949 H 0.0 **** 0.06
27666 C 59.87898731192618 77.21089941463424 253.66008150684155 C 0.0 **** -0.24
27667 H 59.2818671832415 76.64194799560616 252.94717815687818 H 0.0 **** 0.06
27668 H 60.374086698510524 78.033408047173 253.14363354439567 H 0.0 **** 0.06
27669 H 60.62928995976051 76.55807907962233 254.1076906030432 H 0.0 **** 0.06
27670 H 59.23075999574809 77.60900601459753 254.44019292694767 H 0.0 **** 0.06
27671 C 217.72585465013793 209.47693565667998 210.713939682412 C 0.0 **** -0.24
27672 H 218.60111877750273 210.0559146074534 210.42177803988113 H 0.0 **** 0.06
27673 H 217.97551219790142 208.41570382520973 210.71103095807507 H 0.0 **** 0.06
27674 H 216.9151064567589 209.6619106102904 210.00918796452464 H 0.0 **** 0.06
27675 H 217.4117877955063 209.7732023274965 211.71575325252456 H 0.0 **** 0.06
27676 C 31.330680524124745 269.66636811947325 281.375474771174 C 0.0 **** -0.24
27677 H 31.95113700869524 270.49025221896807 281.72872835326876 H 0.0 **** 0.06
27678 H 31.554303959170795 269.46722297614525 280.3274064903938 H 0.0 **** 0.06
27679 H 30.279605318471653 269.9331262076721 281.47909126535825 H 0.0 **** 0.06
27680 H 31.539739069295166 268.77504809410004 281.96751656831213 H 0.0 **** 0.06
27681 C 219.9644624899652 91.02618694206262 66.40884391472531 C 0.0 **** -0.24
27682 H 220.687561457512 91.56640614471365 65.79833392861585 H 0.0 **** 0.06
27683 H 220.2348256256519 91.11825456037653 67.46044634695895 H 0.0 **** 0.06
27684 H 219.96361925961958 89.97377052063462 66.12411717330505 H 0.0 **** 0.06
27685 H 218.97051628796865 91.44588945670006 66.25046430283572 H 0.0 **** 0.06
27686 C 194.72131849487607 240.68229884971953 33.3033890483359 C 0.0 **** -0.24
27687 H 193.92324495258822 241.14836965026328 32.72614388676419 H 0.0 **** 0.06
27688 H 195.3842857522581 240.13570431957274 32.63075006861081 H 0.0 **** 0.06
27689 H 194.28954625275696 239.99129288242358 34.02816269509776 H 0.0 **** 0.06
27690 H 195.28857313599565 241.45161708331986 33.82650755672796 H 0.0 **** 0.06
27691 C 276.7100578917193 280.90918138827004 142.70735498980358 C 0.0 **** -0.24
27692 H 276.9522138615903 280.3777841662421 143.62684279359124 H 0.0 **** 0.06
27693 H 275.7050981118481 280.6357067132458 142.38384177722037 H 0.0 **** 0.06
27694 H 277.4268235895196 280.63863524589124 141.93232204399447 H 0.0 **** 0.06
27695 H 276.75451483853834 281.9833356620889 142.88546316809297 H 0.0 **** 0.06
27696 C 188.10480937511602 202.08477089756667 67.04556355742378 C 0.0 **** -0.24
27697 H 188.55096136982087 202.1329895294553 68.0391669558937 H 0.0 **** 0.06
27698 H 187.17641507665337 201.51567678099047 67.0929266513198 H 0.0 **** 0.06
27699 H 188.79746006398813 201.5943230812382 66.36104743924633 H 0.0 **** 0.06
27700 H 187.8956458403248 203.09409240128957 66.69144625091639 H 0.0 **** 0.06
27701 C 180.94693493655456 164.71862639437467 225.30442838733134 C 0.0 **** -0.24
27702 H 180.03086708658242 164.1847859857354 225.5571366419544 H 0.0 **** 0.06
27703 H 181.80676506025645 164.08090154370103 225.50869419810584 H 0.0 **** 0.06
27704 H 181.016180675972 165.62596499065472 225.90474917720087 H 0.0 **** 0.06
27705 H 180.93376317251767 164.98214551282274 224.24644609420542 H 0.0 **** 0.06
27706 C 221.09553195453404 60.00082367308755 243.86272004444362 C 0.0 **** -0.24
27707 H 220.4522565914234 59.784178890922135 244.71521355921598 H 0.0 **** 0.06
27708 H 222.116936629779 59.693139169918936 244.08982374805106 H 0.0 **** 0.06
27709 H 221.07672574565385 61.07122175888719 243.65653174047637 H 0.0 **** 0.06
27710 H 220.73722362066405 59.45669551505324 242.98976298461557 H 0.0 **** 0.06
27711 C 296.26923662028275 231.63434762615685 236.09969383770118 C 0.0 **** -0.24
27712 H 295.52029480812104 230.8995302574969 236.39360699296742 H 0.0 **** 0.06
27713 H 297.0049683397946 231.74111040261084 236.89645847913982 H 0.0 **** 0.06
27714 H 295.7853152002604 232.59462859159186 235.91989706615797 H 0.0 **** 0.06
27715 H 296.7655219532061 231.3019336383043 235.18831402893068 H 0.0 **** 0.06
27716 C 205.6590253080405 284.437945280955 181.2711784381013 C 0.0 **** -0.24
27717 H 205.7539205640415 283.39236609417304 180.97825967081627 H 0.0 **** 0.06
27718 H 206.6492629947353 284.8545496899567 181.45508178093712 H 0.0 **** 0.06
27719 H 205.05975850745807 284.5080079806388 182.17851567756486 H 0.0 **** 0.06
27720 H 205.17326896384986 284.99652903909833 180.4704317153686 H 0.0 **** 0.06
27721 C 84.00162771525217 69.1262884674095 74.0876929723996 C 0.0 **** -0.24
27722 H 85.07339780432676 69.31463241661186 74.02818850939713 H 0.0 **** 0.06
27723 H 83.82896968434954 68.14782757045953 74.53611111233678 H 0.0 **** 0.06
27724 H 83.57252317611255 69.14916044175379 73.0865608572953 H 0.0 **** 0.06
27725 H 83.53197395082267 69.89582649897386 74.70228138767536 H 0.0 **** 0.06
27726 C 208.6815323003629 33.46597041361227 50.750608145204666 C 0.0 **** -0.24
27727 H 207.95471794810777 33.41696867546153 51.56163162105642 H 0.0 **** 0.06
27728 H 208.41354656824484 34.27760277637836 50.07268417142302 H 0.0 **** 0.06
27729 H 208.68304297181533 32.521973538305645 50.20642254866837 H 0.0 **** 0.06
27730 H 209.67338752054928 33.64956196820185 51.16342373635803 H 0.0 **** 0.06
27731 C 92.91012255752617 26.04346234522191 90.87260809663672 C 0.0 **** -0.24
27732 H 92.6946535169051 25.133011273523522 91.43153410865912 H 0.0 **** 0.06
27733 H 93.71965120890655 26.58665062763555 91.36178005973883 H 0.0 **** 0.06
27734 H 92.0192000873202 26.669623217156925 90.84120652589601 H 0.0 **** 0.06
27735 H 93.20770744598968 25.78449059274962 89.8565996249234 H 0.0 **** 0.06
27736 C 121.53289922441303 152.62389535121542 192.59785639529372 C 0.0 **** -0.24
27737 H 121.79998520076097 152.63329915784902 191.54090228005043 H 0.0 **** 0.06
27738 H 120.98188268645751 153.5327372200117 192.84217501467396 H 0.0 **** 0.06
27739 H 122.43884640108539 152.57390103780057 193.20165406863805 H 0.0 **** 0.06
27740 H 120.909325576203 151.75376376635 192.80649312869076 H 0.0 **** 0.06
27741 C 217.76587424799817 78.35660753243491 190.68284786358578 C 0.0 **** -0.24
27742 H 217.67515199475298 78.96936802128391 191.57982077663877 H 0.0 **** 0.06
27743 H 218.13933652517017 78.9680939651324 189.86135798495303 H 0.0 **** 0.06
27744 H 216.7880429368047 77.95214010410186 190.419351409998 H 0.0 **** 0.06
27745 H 218.45859683327177 77.53735172964014 190.871200437926 H 0.0 **** 0.06
27746 C 261.64392690375996 294.7374504883202 94.2035490232538 C 0.0 **** -0.24
27747 H 261.5553421316142 294.27770563322355 93.2192001234547 H 0.0 **** 0.06
27748 H 262.0425854110761 295.7465402915404 94.09720752001948 H 0.0 **** 0.06
27749 H 262.31745374842296 294.1438436655103 94.82138304439519 H 0.0 **** 0.06
27750 H 260.6625421260283 294.7816915956776 94.67339046687047 H 0.0 **** 0.06
27751 C 76.20308165398899 313.6130525459855 24.990494136354613 C 0.0 **** -0.24
27752 H 77.14290398477584 313.96816423523205 24.567745955301632 H 0.0 **** 0.06
27753 H 76.36135194374725 312.64181102225916 25.461052076978575 H 0.0 **** 0.06
27754 H 75.46229408590497 313.5162290718798 24.197057092923757 H 0.0 **** 0.06
27755 H 75.84733271312686 314.3245532673542 25.73543692800584 H 0.0 **** 0.06
27756 C 135.92571974183133 60.05685299702651 232.43007137415364 C 0.0 **** -0.24
27757 H 135.88547931289935 60.907792264368 231.74959696310754 H 0.0 **** 0.06
27758 H 135.1026872496492 60.121600192576494 233.1412427065244 H 0.0 **** 0.06
27759 H 136.8735801991936 60.067428727445105 232.9669214940089 H 0.0 **** 0.06
27760 H 135.8413557841845 59.13150181563347 231.85890216056794 H 0.0 **** 0.06
27761 C 276.6594374254172 51.124666439956144 71.42626389888036 C 0.0 **** -0.24
27762 H 276.9751337087197 50.23249871495784 71.9660267653583 H 0.0 **** 0.06
27763 H 276.24094599951616 51.845619963644 72.12910192902586 H 0.0 **** 0.06
27764 H 275.90301935347395 50.85508085404581 70.6890050138424 H 0.0 **** 0.06
27765 H 277.51758225300364 51.56682895964846 70.92096091336089 H 0.0 **** 0.06
27766 C 240.24904292809907 157.84795725771278 254.62127735277247 C 0.0 **** -0.24
27767 H 240.95843331811272 158.37183661126676 255.26267742434396 H 0.0 **** 0.06
27768 H 239.29879723187116 157.73997676565733 255.14426939886818 H 0.0 **** 0.06
27769 H 240.64349400156115 156.86147558277833 254.37415670758645 H 0.0 **** 0.06
27770 H 240.09740239201892 158.418246988262 253.70545197866966 H 0.0 **** 0.06
27771 C 270.5513905390989 46.45104791514535 60.00962643300119 C 0.0 **** -0.24
27772 H 270.91397306746546 47.436886747457834 60.29765950173828 H 0.0 **** 0.06
27773 H 270.43053393177735 46.41014843407817 58.92663969830602 H 0.0 **** 0.06
27774 H 269.5911793018783 46.26175443599891 60.49048058231634 H 0.0 **** 0.06
27775 H 271.26997812514446 45.69265119221609 60.32307602918249 H 0.0 **** 0.06
27776 C 3.13556657729805 164.75959110706043 212.4491979882111 C 0.0 **** -0.24
27777 H 4.128292908590424 164.53212169405288 212.06037097173626 H 0.0 **** 0.06
27778 H 2.651464848437797 165.493122318222 211.8038578981519 H 0.0 **** 0.06
27779 H 3.2244915435829 165.1645902580329 213.45789338021984 H 0.0 **** 0.06
27780 H 2.5388726598234967 163.84764939743695 212.47537122315973 H 0.0 **** 0.06
27781 C 213.56896207676277 44.21668988642847 21.164215523367147 C 0.0 **** -0.24
27782 H 213.66634107099424 45.2926153302071 21.307019998443764 H 0.0 **** 0.06
27783 H 214.54045418031026 43.74307935375097 21.304056518887023 H 0.0 **** 0.06
27784 H 213.20785714465234 44.015503896198965 20.156406628636717 H 0.0 **** 0.06
27785 H 212.86101598175424 43.81715939865944 21.89002132632868 H 0.0 **** 0.06
27786 C 72.85351202691791 305.1854871627601 87.66314027215202 C 0.0 **** -0.24
27787 H 71.92558954979017 305.3317226946874 87.10998351592684 H 0.0 **** 0.06
27788 H 73.6864616069044 305.11731085691844 86.96227627286802 H 0.0 **** 0.06
27789 H 72.7898824212426 304.2646632807036 88.24282035717366 H 0.0 **** 0.06
27790 H 73.01240803291225 306.02788209730505 88.33614783688321 H 0.0 **** 0.06
27791 C 123.55237717961771 87.19163824179986 307.2410748744313 C 0.0 **** -0.24
27792 H 123.40968358332745 87.1133687146123 306.16315661688486 H 0.0 **** 0.06
27793 H 124.61557837556984 87.131432096754 307.47234481256965 H 0.0 **** 0.06
27794 H 123.02515823976458 86.3778756412978 307.7383142195523 H 0.0 **** 0.06
27795 H 123.15757014098861 88.14643261454421 307.5900827015781 H 0.0 **** 0.06
27796 C 19.588665614802835 218.93576550454003 136.31910265444705 C 0.0 **** -0.24
27797 H 19.41539488925008 218.3006986499782 135.4496806045137 H 0.0 **** 0.06
27798 H 20.00528314537371 218.33624486496825 137.12871502313544 H 0.0 **** 0.06
27799 H 18.646178085598024 219.37711625921042 136.64077502127364 H 0.0 **** 0.06
27800 H 20.290660365578105 219.72749538329643 136.05563249831195 H 0.0 **** 0.06
27801 C 196.23637910369524 210.34621072570536 239.1716361043412 C 0.0 **** -0.24
27802 H 196.9626449962375 211.1578256298275 239.12775614655266 H 0.0 **** 0.06
27803 H 196.52613620007764 209.641092694583 239.94996812349504 H 0.0 **** 0.06
27804 H 196.2057448874404 209.83425458219773 238.20989767768782 H 0.0 **** 0.06
27805 H 195.2508543340241 210.75302205014194 239.39688446030465 H 0.0 **** 0.06
27806 C 98.04753772009053 175.09055689653417 40.049605625437664 C 0.0 **** -0.24
27807 H 97.82995165457274 174.33190343146123 40.7998372985609 H 0.0 **** 0.06
27808 H 98.93472065103364 175.6504683157948 40.34445134268822 H 0.0 **** 0.06
27809 H 97.19969497345656 175.77119706686165 39.965397606832084 H 0.0 **** 0.06
27810 H 98.22373248132382 174.6098061896961 39.08687174836041 H 0.0 **** 0.06
27811 C 29.66660811943808 196.55485325029105 3.9658099591727023 C 0.0 **** -0.24
27812 H 29.071531325218643 196.21993068649783 4.815295588446531 H 0.0 **** 0.06
27813 H 29.002393638729473 196.86610493851526 3.159153363670498 H 0.0 **** 0.06
27814 H 30.299385138155117 195.73785689478092 3.6206700676863193 H 0.0 **** 0.06
27815 H 30.289879739390642 197.39621363406565 4.268050824254374 H 0.0 **** 0.06
27816 C 108.89134945232078 228.95503066185586 296.9873701507292 C 0.0 **** -0.24
27817 H 109.31150347765819 228.21981939456307 296.30019525111715 H 0.0 **** 0.06
27818 H 108.20429360876591 229.60621770646495 296.44764795597985 H 0.0 **** 0.06
27819 H 109.69640238634977 229.55149450302963 297.4164167785973 H 0.0 **** 0.06
27820 H 108.355084130199 228.4414984442585 297.7857206490869 H 0.0 **** 0.06
27821 C 221.9004100603549 80.6412398387231 120.38135229302793 C 0.0 **** -0.24
27822 H 221.99309716064957 80.17173787104937 121.36067213540647 H 0.0 **** 0.06
27823 H 220.93524192348343 81.14329604885697 120.3085897821698 H 0.0 **** 0.06
27824 H 221.9730311045567 79.87823507916602 119.60595286470797 H 0.0 **** 0.06
27825 H 222.70026503828535 81.36945579375617 120.250276424898 H 0.0 **** 0.06
27826 C 282.4931652078754 144.4852401609888 275.1615190606299 C 0.0 **** -0.24
27827 H 282.81677089009133 144.2036485194671 276.16377444810894 H 0.0 **** 0.06
27828 H 282.7852403157673 145.51665753841638 274.9623867480895 H 0.0 **** 0.06
27829 H 281.4106633358364 144.39310644764464 275.09050910776705 H 0.0 **** 0.06
27830 H 282.9633968060699 143.8276498816203 274.4305713078856 H 0.0 **** 0.06
27831 C 125.35883905291635 252.8370438868069 192.95558928476652 C 0.0 **** -0.24
27832 H 126.05845348433431 253.12571226028305 192.17040168114403 H 0.0 **** 0.06
27833 H 125.62777819045851 253.3426156964005 193.88336255353926 H 0.0 **** 0.06
27834 H 125.4038011632152 251.75834446952422 193.10353293291104 H 0.0 **** 0.06
27835 H 124.34866983221116 253.12364379671894 192.66395597905813 H 0.0 **** 0.06
27836 C 308.60244405796107 137.5942404619189 209.70089462729425 C 0.0 **** -0.24
27837 H 308.7073569744344 136.8180838439138 208.94351986573182 H 0.0 **** 0.06
27838 H 308.2168344440826 137.15377969908985 210.6201448056015 H 0.0 **** 0.06
27839 H 307.91063298362053 138.3581091415547 209.34556741362852 H 0.0 **** 0.06
27840 H 309.5750024063685 138.0461045450118 209.89388285403516 H 0.0 **** 0.06
27841 C 45.29153355024826 191.88131075372468 86.5921218585465 C 0.0 **** -0.24
27842 H 44.913389601729506 191.12558055528444 87.28116567058422 H 0.0 **** 0.06
27843 H 44.76597567713537 192.82189628896606 86.76161265406577 H 0.0 **** 0.06
27844 H 45.126895228739755 191.55262628040805 85.56600778604101 H 0.0 **** 0.06
27845 H 46.358649716090355 192.0253090756084 86.76038926600037 H 0.0 **** 0.06
27846 C 266.25811725793005 126.37480940468933 181.14876690769768 C 0.0 **** -0.24
27847 H 265.23839437250336 126.29844585813282 181.5250861763284 H 0.0 **** 0.06
27848 H 266.73105585491345 125.3933021069281 181.1823505064375 H 0.0 **** 0.06
27849 H 266.82258418439363 127.07232005573826 181.76727748054856 H 0.0 **** 0.06
27850 H 266.2393716324346 126.73424592114398 180.11934505670735 H 0.0 **** 0.06
27851 C 50.51461881557759 65.75330179101326 100.66549627206737 C 0.0 **** -0.24
27852 H 49.921735565019674 66.15806203478084 101.48527730561952 H 0.0 **** 0.06
27853 H 50.627126396263066 64.67694600798163 100.7950749047933 H 0.0 **** 0.06
27854 H 51.49729382929206 66.22413778737493 100.65996196248679 H 0.0 **** 0.06
27855 H 50.01070585409752 65.95459573534089 99.72021809888136 H 0.0 **** 0.06
27856 C 170.67528354974053 221.24262537945668 147.97779182434496 C 0.0 **** -0.24
27857 H 171.5438399924721 221.11720205040947 148.62385764270203 H 0.0 **** 0.06
27858 H 169.80841790159906 221.50720247825373 148.58303991840575 H 0.0 **** 0.06
27859 H 170.47859505663672 220.30945124949068 147.44864058312632 H 0.0 **** 0.06
27860 H 170.87091842252977 222.03508792120792 147.25603808355797 H 0.0 **** 0.06
27861 C 73.59509986184005 254.8241584817872 148.257523191548 C 0.0 **** -0.24
27862 H 72.54108083784786 254.88790694191215 147.9854122120436 H 0.0 **** 0.06
27863 H 73.75170585584493 253.96136625223437 148.90588149265812 H 0.0 **** 0.06
27864 H 73.89042487160691 255.73224544790943 148.78230080785747 H 0.0 **** 0.06
27865 H 74.19600967018258 254.71444481211518 147.35471996645936 H 0.0 **** 0.06
27866 C 204.23848227075 197.60354025126708 26.924171277895795 C 0.0 **** -0.24
27867 H 203.86676903244796 197.2115056959649 25.9772369993631 H 0.0 **** 0.06
27868 H 203.5543725134491 197.32629545478642 27.72619840511973 H 0.0 **** 0.06
27869 H 204.30920459353177 198.69031992641698 26.865293037104976 H 0.0 **** 0.06
27870 H 205.2245767267977 197.1861027796221 27.12786475121308 H 0.0 **** 0.06
27871 C 270.6896541902978 32.30080180922084 309.1527330928373 C 0.0 **** -0.24
27872 H 270.45714547592905 31.240717319057694 309.0564215309415 H 0.0 **** 0.06
27873 H 271.38728821546965 32.59250185469068 308.3669613668468 H 0.0 **** 0.06
27874 H 271.1416775140478 32.48599492583372 310.12712355568476 H 0.0 **** 0.06
27875 H 269.7737178497938 32.88377175106194 309.0611197047871 H 0.0 **** 0.06
27876 C 55.42057707451528 196.3415930124699 156.08445655351204 C 0.0 **** -0.24
27877 H 56.244638190117456 196.76067589264062 155.50769562912473 H 0.0 **** 0.06
27878 H 54.537388616865144 196.26329074465656 155.4499794019726 H 0.0 **** 0.06
27879 H 55.20269841188528 196.99211476229596 156.93164289224723 H 0.0 **** 0.06
27880 H 55.69741175263968 195.35220716634927 156.44736915247336 H 0.0 **** 0.06
27881 C 138.22043200223467 159.7265814698739 255.73856619131539 C 0.0 **** -0.24
27882 H 138.705773741528 160.15775556032673 256.6146932677737 H 0.0 **** 0.06
27883 H 138.6860592647765 160.12140351957493 254.8353009182393 H 0.0 **** 0.06
27884 H 137.16169322943261 159.98662666267575 255.74520402430625 H 0.0 **** 0.06
27885 H 138.32931734624106 158.6426363370544 255.75966777769577 H 0.0 **** 0.06
27886 C 8.149547263902335 289.15251890834816 65.69147243789462 C 0.0 **** -0.24
27887 H 8.920471121522056 289.3248917140534 64.94046020674568 H 0.0 **** 0.06
27888 H 7.3584198511142915 289.8945318206669 65.57725943089207 H 0.0 **** 0.06
27889 H 8.58679725918654 289.23633443970095 66.68667028287359 H 0.0 **** 0.06
27890 H 7.733138025571876 288.15364316442214 65.5611269564356 H 0.0 **** 0.06
27891 C 224.31477989016975 29.229640926251903 26.62261426592829 C 0.0 **** -0.24
27892 H 224.1890267186251 29.188807113603843 25.54117814460531 H 0.0 **** 0.06
27893 H 223.6631501269347 29.999877308755885 27.035362272976897 H 0.0 **** 0.06
27894 H 225.3525341671086 29.466674102677217 26.858206469218686 H 0.0 **** 0.06
27895 H 224.05550732875645 28.263295515495145 27.054824440285756 H 0.0 **** 0.06
27896 C 132.83419827614793 286.6445249583806 26.319314182203698 C 0.0 **** -0.24
27897 H 133.0828708756385 286.10876932585865 25.402568200049217 H 0.0 **** 0.06
27898 H 133.69418617727322 287.2344859915238 26.638907903600085 H 0.0 **** 0.06
27899 H 132.57483208249613 285.928001849226 27.099050140146772 H 0.0 **** 0.06
27900 H 131.98770542579376 287.30475967472506 26.13538399051609 H 0.0 **** 0.06
27901 C 56.01468390952542 56.269253902423316 92.01953087317085 C 0.0 **** -0.24
27902 H 55.905816141667486 55.186230774972586 92.07176172463247 H 0.0 **** 0.06
27903 H 56.97132386051129 56.5163748711673 91.55829385728259 H 0.0 **** 0.06
27904 H 55.977071120391344 56.68646001742968 93.02535922901552 H 0.0 **** 0.06
27905 H 55.20351236433768 56.687035545164434 91.42233527868348 H 0.0 **** 0.06
27906 C 146.90587212812272 50.69726868674982 30.187380095352978 C 0.0 **** -0.24
27907 H 146.14344811019734 51.42773755779186 29.918716382590617 H 0.0 **** 0.06
27908 H 147.8300244050435 51.2144803211618 30.446071119474283 H 0.0 **** 0.06
27909 H 147.08672397957142 50.0328396185422 29.34209376889268 H 0.0 **** 0.06
27910 H 146.56439132000352 50.1125049399582 31.04192884835527 H 0.0 **** 0.06
27911 C 93.848579697974 160.64722596355887 161.6878951728449 C 0.0 **** -0.24
27912 H 92.97578411887037 161.01584867897913 161.1485728920054 H 0.0 **** 0.06
27913 H 94.55188537209412 161.465056823876 161.84100349174923 H 0.0 **** 0.06
27914 H 94.32751486265806 159.8586663821194 161.106938851552 H 0.0 **** 0.06
27915 H 93.53672879028645 160.24838151922899 162.65276120857413 H 0.0 **** 0.06
27916 C 108.27265281984884 141.63924233691225 305.260012248761 C 0.0 **** -0.24
27917 H 109.18683573761322 142.0953785315635 304.8784002459838 H 0.0 **** 0.06
27918 H 108.12826139313557 141.93211715860474 306.30000157808195 H 0.0 **** 0.06
27919 H 108.35451405172441 140.55488141203838 305.19565801918156 H 0.0 **** 0.06
27920 H 107.4233712035392 141.97630160698975 304.66531389107905 H 0.0 **** 0.06
27921 C 267.92791491209164 27.334611819581653 181.50238790527578 C 0.0 **** -0.24
27922 H 268.56596976245726 28.059551559477796 182.0081069307638 H 0.0 **** 0.06
27923 H 268.5368558619818 26.705893232102284 180.8528109606467 H 0.0 **** 0.06
27924 H 267.1833275796535 27.861917921769674 180.90550237876784 H 0.0 **** 0.06
27925 H 267.42613848402243 26.71325665537239 182.2440708061327 H 0.0 **** 0.06
27926 C 168.37232431912707 51.64971873325425 3.2387294897692414 C 0.0 **** -0.24
27927 H 168.39390399422524 50.98619299415418 2.3751623216743525 H 0.0 **** 0.06
27928 H 167.34563181949284 51.96239880410985 3.4312782841130485 H 0.0 **** 0.06
27929 H 168.98714460828302 52.52755515318222 3.0385705919862858 H 0.0 **** 0.06
27930 H 168.7616153066798 51.12430532106089 4.111135144222601 H 0.0 **** 0.06
27931 C 206.50620798937592 167.65972090781338 4.690173891204083 C 0.0 **** -0.24
27932 H 206.27102004640238 167.04257605493683 3.823059013093868 H 0.0 **** 0.06
27933 H 205.63184986372198 168.2510049815001 4.963203861681663 H 0.0 **** 0.06
27934 H 207.33460055418078 168.3251087088118 4.449192194702775 H 0.0 **** 0.06
27935 H 206.78705856716743 167.01821875071983 5.526244038531274 H 0.0 **** 0.06
27936 C 296.7398401376404 280.5263186399531 270.20850404516307 C 0.0 **** -0.24
27937 H 296.4650985339039 281.5026634048594 269.8102437060134 H 0.0 **** 0.06
27938 H 297.7826235733487 280.3171065874518 269.9709174903159 H 0.0 **** 0.06
27939 H 296.10376622694514 279.76084091415044 269.76454213313735 H 0.0 **** 0.06
27940 H 296.60631554847885 280.52625542908845 271.2903235912542 H 0.0 **** 0.06
27941 C 17.351265641091175 32.36378712436971 153.34061683783295 C 0.0 **** -0.24
27942 H 16.479080260522366 32.80896169918532 153.82152807608935 H 0.0 **** 0.06
27943 H 18.08217652686446 33.142666618042426 153.12202277597527 H 0.0 **** 0.06
27944 H 17.046412307759837 31.879955464022004 152.41380579446474 H 0.0 **** 0.06
27945 H 17.79475549309285 31.62467744639045 154.00807768813576 H 0.0 **** 0.06
27946 C 169.25540063959448 302.0654856109246 296.9768572663529 C 0.0 **** -0.24
27947 H 168.58867516977597 301.438132327165 297.56974288936453 H 0.0 **** 0.06
27948 H 169.60801032161072 301.5023821924213 296.1117212596111 H 0.0 **** 0.06
27949 H 170.1073218733335 302.36632323066556 297.58626869222337 H 0.0 **** 0.06
27950 H 168.71721610101582 302.9514591633151 296.64044886082536 H 0.0 **** 0.06
27951 C 4.783940703694213 31.116253978470212 244.32029388328402 C 0.0 **** -0.24
27952 H 4.314562830985636 30.133490764499783 244.28426299619332 H 0.0 **** 0.06
27953 H 5.548764282421587 31.181994314348486 243.54610627421357 H 0.0 **** 0.06
27954 H 5.242996030891291 31.262447148925503 245.29851273279615 H 0.0 **** 0.06
27955 H 4.029230864494366 31.88493950125624 244.1543813306691 H 0.0 **** 0.06
27956 C 181.8073332114086 186.17786675906115 95.52644072058305 C 0.0 **** -0.24
27957 H 182.62859518993952 186.8597856534028 95.30664824412258 H 0.0 **** 0.06
27958 H 182.1665833881239 185.1492553345426 95.48314866869981 H 0.0 **** 0.06
27959 H 181.01314088295987 186.31692225431442 94.79314169339384 H 0.0 **** 0.06
27960 H 181.4210535181616 186.3865020507571 96.52482474986715 H 0.0 **** 0.06
27961 C 257.7419609363078 64.04681052699937 283.7859725126469 C 0.0 **** -0.24
27962 H 257.39794425237864 63.02493365999811 283.6291843256738 H 0.0 **** 0.06
27963 H 258.82388279630914 64.08861571652014 283.6588829123389 H 0.0 **** 0.06
27964 H 257.48182032817056 64.36764008264092 284.7948380198235 H 0.0 **** 0.06
27965 H 257.2649757860985 64.7057297577721 283.0604478999582 H 0.0 **** 0.06
27966 C 126.31737466497916 236.62433687438278 251.38848568291388 C 0.0 **** -0.24
27967 H 125.39699189505694 236.04516498743686 251.4652048696907 H 0.0 **** 0.06
27968 H 126.09305604330015 237.6103263143009 250.98234983458497 H 0.0 **** 0.06
27969 H 127.01654428705066 236.10981290939299 250.73127166354024 H 0.0 **** 0.06
27970 H 126.76114484607069 236.7308307300839 252.37891460012906 H 0.0 **** 0.06
27971 C 191.47174348824444 184.51386986050994 262.26758820207334 C 0.0 **** -0.24
27972 H 191.9124966295908 184.25420447496333 263.2301955502602 H 0.0 **** 0.06
27973 H 192.1111382706149 184.1434044348992 261.46512073276403 H 0.0 **** 0.06
27974 H 191.3818118387125 185.59768812765935 262.1899698075248 H 0.0 **** 0.06
27975 H 190.48482523320473 184.05991311023115 262.18484177367094 H 0.0 **** 0.06
27976 C 314.011580570887 69.09104375344836 45.48330945713275 C 0.0 **** -0.24
27977 H 314.2214462794735 70.04657975137741 45.00299738195034 H 0.0 **** 0.06
27978 H 313.8566910861647 69.24684755914467 46.55034683505539 H 0.0 **** 0.06
27979 H 314.8548981221792 68.41604906991066 45.332604310646815 H 0.0 **** 0.06
27980 H 313.11381768430516 68.65439929620376 45.044527310543316 H 0.0 **** 0.06
27981 C 196.9197488408618 63.518138300522594 87.09215753301464 C 0.0 **** -0.24
27982 H 197.5326373983342 62.829902604800196 87.67387446706527 H 0.0 **** 0.06
27983 H 196.73541334096257 63.09376861139552 86.10450873574473 H 0.0 **** 0.06
27984 H 197.44066512369574 64.46913142640045 86.9876221595764 H 0.0 **** 0.06
27985 H 195.97001519056096 63.67792247000591 87.6018577969777 H 0.0 **** 0.06
27986 C 28.53919969225379 128.16860877497592 15.986942021484296 C 0.0 **** -0.24
27987 H 28.022341491759875 127.95444761462511 16.921932900544647 H 0.0 **** 0.06
27988 H 29.01294672461509 127.25834442236996 15.617481720476576 H 0.0 **** 0.06
27989 H 29.29887086597995 128.9313345474675 16.157887783634024 H 0.0 **** 0.06
27990 H 27.820803765528183 128.52890073194797 15.249660966269843 H 0.0 **** 0.06
27991 C 95.27967752446011 152.13955127475924 218.98384362327585 C 0.0 **** -0.24
27992 H 95.61288717993997 151.85028466638477 217.98717190976265 H 0.0 **** 0.06
27993 H 94.6393885402614 153.01924418791396 218.9105923425925 H 0.0 **** 0.06
27994 H 96.14572281319937 152.3719680859117 219.60320404475297 H 0.0 **** 0.06
27995 H 94.72088463730603 151.31919488371756 219.43273697892556 H 0.0 **** 0.06
27996 C 312.6787796394539 185.32237941278214 16.69866872386416 C 0.0 **** -0.24
27997 H 312.86235533060375 184.32776668067459 16.2933345100937 H 0.0 **** 0.06
27998 H 313.3425114254999 186.0396702909399 16.215620834415006 H 0.0 **** 0.06
27999 H 312.86631010709425 185.31837632446116 17.77230211003274 H 0.0 **** 0.06
28000 H 311.6420534133408 185.60464296729117 16.512171075036832 H 0.0 **** 0.06
28001 C 67.79112194082296 69.5560136226378 183.23123885782405 C 0.0 **** -0.24
28002 H 67.48982337617633 68.8928018540303 184.0407669087556 H 0.0 **** 0.06
28003 H 68.87894284719326 69.56805275621966 183.15775356367652 H 0.0 **** 0.06
28004 H 67.43013399134338 70.56429124454286 183.43295718939925 H 0.0 **** 0.06
28005 H 67.36750729861231 69.20011472045587 182.29255043644554 H 0.0 **** 0.06
28006 C 296.65976207888303 3.0236615523490116 37.45896819486447 C 0.0 **** -0.24
28007 H 297.22612018179007 3.7225590550578573 36.8431280113646 H 0.0 **** 0.06
28008 H 295.7367230527798 2.7540921181219034 36.94499676602564 H 0.0 **** 0.06
28009 H 296.4212504137176 3.4913600355885563 38.413558504242275 H 0.0 **** 0.06
28010 H 297.2550370817576 2.1270916469529766 37.63178435562605 H 0.0 **** 0.06
28011 C 130.58491759979003 33.50651510698083 70.03421306023529 C 0.0 **** -0.24
28012 H 131.23129455680674 33.47043087121364 70.9104528116161 H 0.0 **** 0.06
28013 H 129.6802558307603 32.928987779800536 70.22580800397085 H 0.0 **** 0.06
28014 H 131.11113887985925 33.08477160124079 69.17798007275499 H 0.0 **** 0.06
28015 H 130.316981131734 34.54187017566829 69.82261135259921 H 0.0 **** 0.06
28016 C 264.4279112070226 41.16150063962607 94.87604868510829 C 0.0 **** -0.24
28017 H 264.899264580743 42.12542218808241 95.06581062006694 H 0.0 **** 0.06
28018 H 264.4139478948479 40.96868754110892 93.80330757697098 H 0.0 **** 0.06
28019 H 263.4059203466524 41.17612990860752 95.25572225415453 H 0.0 **** 0.06
28020 H 264.99123300991727 40.37635451786062 95.37947341616379 H 0.0 **** 0.06
28021 C 159.30211181786177 71.06480830139526 124.14030427722469 C 0.0 **** -0.24
28022 H 159.2447240752228 70.03904469462177 123.77773977991566 H 0.0 **** 0.06
28023 H 160.3330229346421 71.4148034161284 124.0779260463326 H 0.0 **** 0.06
28024 H 158.9666020147796 71.10291620980544 125.17673290947499 H 0.0 **** 0.06
28025 H 158.6631956405755 71.7027160885167 123.52846595731913 H 0.0 **** 0.06
28026 C 7.962974502833205 120.85626063274128 113.67056573126331 C 0.0 **** -0.24
28027 H 8.249047932842714 121.73680089509696 114.24538760518104 H 0.0 **** 0.06
28028 H 8.623444706623673 120.02678899125252 113.92577596136542 H 0.0 **** 0.06
28029 H 8.047386137897888 121.07320806721907 112.60646102339308 H 0.0 **** 0.06
28030 H 6.933377507437953 120.58782526095422 113.90663315187746 H 0.0 **** 0.06
28031 C 71.88841354565358 57.86900291805901 124.02873125334565 C 0.0 **** -0.24
28032 H 72.74835015944672 57.20320346788901 123.96722145394557 H 0.0 **** 0.06
28033 H 72.20412131345134 58.83412280627644 124.42580877700368 H 0.0 **** 0.06
28034 H 71.13722155637618 57.433283815207744 124.68634725210859 H 0.0 **** 0.06
28035 H 71.46452032932189 58.00710003966478 123.03387343542579 H 0.0 **** 0.06
28036 C 54.51968019999546 78.97587443818085 203.71564556346016 C 0.0 **** -0.24
28037 H 53.92056887015343 79.85916937352144 203.49542290448545 H 0.0 **** 0.06
28038 H 55.57730625672312 79.24201088731814 203.6989760819697 H 0.0 **** 0.06
28039 H 54.326117898509835 78.20860267897334 202.9670481910307 H 0.0 **** 0.06
28040 H 54.25623456799269 78.59553775600489 204.70298074497612 H 0.0 **** 0.06
28041 C 127.28233083955126 42.15677547590553 46.038207757598485 C 0.0 **** -0.24
28042 H 127.33678219197407 43.21047458070754 46.30944121958248 H 0.0 **** 0.06
28043 H 126.37411488399988 41.72085802430732 46.455795004320464 H 0.0 **** 0.06
28044 H 128.15253705041994 41.6346152753533 46.435994416066194 H 0.0 **** 0.06
28045 H 127.2654135262876 42.06116131071806 44.952932178754 H 0.0 **** 0.06
28046 C 179.2893666888521 235.70361673635716 113.82149208016978 C 0.0 **** -0.24
28047 H 178.88761235023253 234.8373484625098 114.34687677537815 H 0.0 **** 0.06
28048 H 178.97710571031473 236.6142932639321 114.33199838809816 H 0.0 **** 0.06
28049 H 178.91523230029497 235.71286686589252 112.79782160403124 H 0.0 **** 0.06
28050 H 180.37829010266842 235.64737610032805 113.81012793068624 H 0.0 **** 0.06
28051 C 12.30374709495598 297.4968431740636 112.93858544549471 C 0.0 **** -0.24
28052 H 11.339995616017191 298.0063507152314 112.92390536869453 H 0.0 **** 0.06
28053 H 13.001712372122526 298.02223740643717 112.28525342338617 H 0.0 **** 0.06
28054 H 12.179364347962888 296.47270392015247 112.5890756980964 H 0.0 **** 0.06
28055 H 12.694292138398737 297.4898007648792 113.95596802908102 H 0.0 **** 0.06
28056 C 216.0763481257768 290.2580550158696 54.35439616909787 C 0.0 **** -0.24
28057 H 216.10624790767798 290.9525989189634 53.514245513367996 H 0.0 **** 0.06
28058 H 215.63122179186172 290.75129307179606 55.21844368892425 H 0.0 **** 0.06
28059 H 217.09030163847078 289.9411981499767 54.59834975110067 H 0.0 **** 0.06
28060 H 215.4788826751602 289.38797145411104 54.08312512650713 H 0.0 **** 0.06
28061 C 271.4283876155215 217.48730987455156 26.956897065857135 C 0.0 **** -0.24
28062 H 272.4469810621842 217.8061498509399 27.178567566455854 H 0.0 **** 0.06
28063 H 271.0466303212337 218.05526904594586 26.107923507849648 H 0.0 **** 0.06
28064 H 270.795924433266 217.66286547946632 27.82662455122326 H 0.0 **** 0.06
28065 H 271.42564265452484 216.42475023404313 26.713918002172534 H 0.0 **** 0.06
28066 C 6.674593273163538 163.3982050830728 280.37690993142223 C 0.0 **** -0.24
28067 H 7.692393276157873 163.37261498887915 280.76558415084025 H 0.0 **** 0.06
28068 H 5.9691197241657505 163.38829901335976 281.2076537490916 H 0.0 **** 0.06
28069 H 6.5055143605589905 162.52587458102363 279.74542662410096 H 0.0 **** 0.06
28070 H 6.533279648145424 164.30469108858102 279.78965536637173 H 0.0 **** 0.06
28071 C 34.724976716434526 121.60877393538209 65.9693903084717 C 0.0 **** -0.24
28072 H 35.46617513062881 120.80975150417478 65.94772429890918 H 0.0 **** 0.06
28073 H 34.87431666508496 122.2656536730104 65.11213367094541 H 0.0 **** 0.06
28074 H 34.835646558038434 122.18082963369949 66.890683863703 H 0.0 **** 0.06
28075 H 33.72490410713965 121.17762727994943 65.92745361585227 H 0.0 **** 0.06
28076 C 151.3971836338104 211.11571663272804 180.63778400512467 C 0.0 **** -0.24
28077 H 151.5338638152342 211.31257430279692 181.7017163062904 H 0.0 **** 0.06
28078 H 151.1182092356422 210.07126379863791 180.49569981865739 H 0.0 **** 0.06
28079 H 152.32757616782283 211.31969346204215 180.10883643604546 H 0.0 **** 0.06
28080 H 150.6082911701422 211.76018908934645 180.2481453395293 H 0.0 **** 0.06
28081 C 162.94596376189122 22.921484826453195 300.77606759409 C 0.0 **** -0.24
28082 H 163.61677102825962 23.778316905695817 300.8433190018711 H 0.0 **** 0.06
28083 H 162.7560671096346 22.69106347773908 299.7278616923205 H 0.0 **** 0.06
28084 H 162.00445737883456 23.157675411360998 301.27259059571765 H 0.0 **** 0.06
28085 H 163.4064404418279 22.06018898860094 301.2599684687997 H 0.0 **** 0.06
28086 C 239.85243050682192 197.04733323272848 218.65571480533623 C 0.0 **** -0.24
28087 H 240.84791294620354 197.3176658834568 219.00635609764893 H 0.0 **** 0.06
28088 H 239.5864030888361 196.0626755597542 219.04000770069507 H 0.0 **** 0.06
28089 H 239.8444372580893 197.0265339613149 217.56508477795037 H 0.0 **** 0.06
28090 H 239.13044659733737 197.7830027273261 219.00985175359008 H 0.0 **** 0.06
28091 C 230.67210087473677 178.42867025065067 148.24836629916385 C 0.0 **** -0.24
28092 H 230.45365752822778 178.85753110000564 149.22639299947724 H 0.0 **** 0.06
28093 H 231.54416436760033 177.77967578492445 148.32331824528802 H 0.0 **** 0.06
28094 H 230.87433474875834 179.23007384766834 147.53825709511878 H 0.0 **** 0.06
28095 H 229.81425606378912 177.84953969128094 147.90670502668075 H 0.0 **** 0.06
28096 C 127.56930334246204 9.515625587694757 194.9523677003325 C 0.0 **** -0.24
28097 H 127.24006061959119 9.033292205205655 194.03135896371697 H 0.0 **** 0.06
28098 H 128.19775794239274 10.37242051608078 194.70820050553272 H 0.0 **** 0.06
28099 H 128.13862335924574 8.80525407389851 195.55044911067404 H 0.0 **** 0.06
28100 H 126.69978134564809 9.851476590884545 195.51681339991438 H 0.0 **** 0.06
28101 C 1.7048580850701 67.50052384686362 30.673897490496927 C 0.0 **** -0.24
28102 H 2.68468716979703 67.94283056949223 30.49593661141037 H 0.0 **** 0.06
28103 H 1.6994739458853019 66.47201630641445 30.314556990160895 H 0.0 **** 0.06
28104 H 0.9456465165377494 68.07514782309957 30.142383206036953 H 0.0 **** 0.06
28105 H 1.4890975825104533 67.51382290412789 31.741843597124586 H 0.0 **** 0.06
28106 C 95.88421522665627 313.3945419192272 124.05545853177921 C 0.0 **** -0.24
28107 H 96.54180042265858 313.3595657956916 124.92407854703455 H 0.0 **** 0.06
28108 H 95.50457999125237 312.39415292305193 123.84763578455755 H 0.0 **** 0.06
28109 H 96.44236333155516 313.75831641853415 123.1920645533242 H 0.0 **** 0.06
28110 H 95.04959431679092 314.0652865858133 124.25773526269222 H 0.0 **** 0.06
28111 C 186.3005853486656 108.17343433697681 116.05976540587827 C 0.0 **** -0.24
28112 H 185.935555726727 107.2846819460135 115.54465579206769 H 0.0 **** 0.06
28113 H 185.48451989973643 108.6275662035269 116.62131395964343 H 0.0 **** 0.06
28114 H 186.6811793605503 108.88642937434719 115.32915906880129 H 0.0 **** 0.06
28115 H 187.10095409991027 107.89229922910818 116.7445341734529 H 0.0 **** 0.06
28116 C 40.89293476123888 254.16534017875915 120.32428527511999 C 0.0 **** -0.24
28117 H 41.39507521224681 253.64104578655326 119.51148289705361 H 0.0 **** 0.06
28118 H 40.34699623685577 255.0200274780685 119.92398651047176 H 0.0 **** 0.06
28119 H 41.632761512293825 254.5110991840424 121.04529597721654 H 0.0 **** 0.06
28120 H 40.195140844012 253.48764529681512 120.81708508257125 H 0.0 **** 0.06
28121 C 207.15865755896107 1.2975328762571934 301.18623419166204 C 0.0 **** -0.24
28122 H 206.2440190977096 1.7762854771760885 300.8371671779512 H 0.0 **** 0.06
28123 H 207.1157134882602 0.23049419962063666 300.9663123365592 H 0.0 **** 0.06
28124 H 207.2565817537546 1.443196105571218 302.26216282642986 H 0.0 **** 0.06
28125 H 208.01627867509558 1.7388866914624543 300.67978362641634 H 0.0 **** 0.06
28126 C 275.0816220472483 93.05354418962833 155.74616752331923 C 0.0 **** -0.24
28127 H 275.21445271331606 91.9873611999787 155.92874133022514 H 0.0 **** 0.06
28128 H 275.99655114027075 93.46590544369215 155.31800714280996 H 0.0 **** 0.06
28129 H 274.861922282823 93.55801916474803 156.68730320148575 H 0.0 **** 0.06
28130 H 274.2556126451969 93.20337182260425 155.0518689620701 H 0.0 **** 0.06
28131 C 20.750542808707323 25.482992852511074 271.5509425601839 C 0.0 **** -0.24
28132 H 20.053550472868068 26.292477766451356 271.7664122914087 H 0.0 **** 0.06
28133 H 21.722698195372914 25.900282642268536 271.2878256906454 H 0.0 **** 0.06
28134 H 20.372102920399115 24.888152586611483 270.7194741842103 H 0.0 **** 0.06
28135 H 20.854403505532048 24.849217661966037 272.43275451418396 H 0.0 **** 0.06
28136 C 107.70354276371913 156.07997764383288 153.84729067115018 C 0.0 **** -0.24
28137 H 107.48234815068838 157.14311740130262 153.94261196987736 H 0.0 **** 0.06
28138 H 106.79943077339175 155.54732265902902 153.5505491489929 H 0.0 **** 0.06
28139 H 108.05484696653926 155.69532491268018 154.80402782272637 H 0.0 **** 0.06
28140 H 108.47555389708342 155.93599974014927 153.09120104385454 H 0.0 **** 0.06
28141 C 156.63923079760713 40.21596192366118 211.404531153084 C 0.0 **** -0.24
28142 H 157.57953394524702 39.67748092577463 211.28147604074763 H 0.0 **** 0.06
28143 H 156.40076405795463 40.29152567770146 212.46583699349782 H 0.0 **** 0.06
28144 H 155.8429361777038 39.67879648168321 210.89023988171317 H 0.0 **** 0.06
28145 H 156.7354223769977 41.215579030863836 210.98145413150644 H 0.0 **** 0.06
28146 C 125.660404280069 28.185719414298603 239.2614916023741 C 0.0 **** -0.24
28147 H 125.63145836377646 29.2604263539028 239.08021424442995 H 0.0 **** 0.06
28148 H 124.7634741356344 27.72446108573274 238.8495080891235 H 0.0 **** 0.06
28149 H 125.70590621929821 28.0001270148627 240.33413104789707 H 0.0 **** 0.06
28150 H 126.54174000268208 27.760333804430815 238.78112738795562 H 0.0 **** 0.06
28151 C 312.16301217047794 303.49989586431116 199.96704718860724 C 0.0 **** -0.24
28152 H 312.19863317952615 304.1711991911324 199.10933783532232 H 0.0 **** 0.06
28153 H 313.1236708018967 303.5169944687923 200.48123973918064 H 0.0 **** 0.06
28154 H 311.9503823703522 302.4860730771553 199.62628733318184 H 0.0 **** 0.06
28155 H 311.3788717910604 303.825397569172 200.65045618358636 H 0.0 **** 0.06
28156 C 237.01620866119907 228.90932387387747 169.67929896939359 C 0.0 **** -0.24
28157 H 236.95818831246328 229.08526594043653 168.6051330704177 H 0.0 **** 0.06
28158 H 236.14089193430215 229.34209904983348 170.16555469718406 H 0.0 **** 0.06
28159 H 237.91919194142213 229.37298638868486 170.07587004223632 H 0.0 **** 0.06
28160 H 237.04441511466558 227.83588478215148 169.87012157938352 H 0.0 **** 0.06
28161 C 258.5844663322417 172.80782660678125 304.8378866992409 C 0.0 **** -0.24
28162 H 259.4113154999491 172.50420115652213 304.19579138700794 H 0.0 **** 0.06
28163 H 258.2016389156379 173.77247639318307 304.5037649975831 H 0.0 **** 0.06
28164 H 258.9346753281627 172.89109205417986 305.86618620295064 H 0.0 **** 0.06
28165 H 257.7907184988549 172.06327755506516 304.78416116713987 H 0.0 **** 0.06
28166 C 34.36074804423123 124.67088361312548 133.4878217970722 C 0.0 **** -0.24
28167 H 33.914570803443496 124.704311413797 132.49373185986585 H 0.0 **** 0.06
28168 H 33.63814230067905 125.02927554391084 134.2218160197322 H 0.0 **** 0.06
28169 H 35.24679873411728 125.30529407880437 133.50988728350902 H 0.0 **** 0.06
28170 H 34.64166204458394 123.64507625622016 133.72462115751398 H 0.0 **** 0.06
28171 C 186.1253826935378 311.7909104721589 82.76934456264115 C 0.0 **** -0.24
28172 H 185.80078460313086 311.7462461614979 83.80800693335391 H 0.0 **** 0.06
28173 H 186.90205248694252 311.0451870992633 82.59930329217775 H 0.0 **** 0.06
28174 H 186.52000243579954 312.7838055114341 82.55376151677177 H 0.0 **** 0.06
28175 H 185.27700710355964 311.58829023031564 82.1145314194446 H 0.0 **** 0.06
28176 C 293.96438352042117 271.864218131871 126.99962642861826 C 0.0 **** -0.24
28177 H 293.8604593298485 272.7519539405904 126.37508799892075 H 0.0 **** 0.06
28178 H 294.2746771780437 271.02048767309435 126.3830511210277 H 0.0 **** 0.06
28179 H 293.00849919984967 271.63831822602344 127.47120965967596 H 0.0 **** 0.06
28180 H 294.71486916435015 272.04749890670934 127.76878818484968 H 0.0 **** 0.06
28181 C 83.68744546915696 144.87774021409382 230.9410110078276 C 0.0 **** -0.24
28182 H 83.69445048151911 144.14857974029988 230.1308262861166 H 0.0 **** 0.06
28183 H 82.78702905460796 144.74484411336877 231.54103705584117 H 0.0 **** 0.06
28184 H 83.70080398545977 145.88459651922616 230.52389198403966 H 0.0 **** 0.06
28185 H 84.56683297390404 144.7324449014972 231.56773043034167 H 0.0 **** 0.06
28186 C 33.688876302926445 169.67259168524703 30.801364010508166 C 0.0 **** -0.24
28187 H 33.95369682354726 169.38320466851576 31.817666421326834 H 0.0 **** 0.06
28188 H 32.640281524282784 169.4406676497797 30.618414355966735 H 0.0 **** 0.06
28189 H 34.31194551331484 169.12413172247432 30.094479450643178 H 0.0 **** 0.06
28190 H 33.85194556850195 170.7430032394759 30.67488132257975 H 0.0 **** 0.06
28191 C 157.24380644215114 128.60451399008156 82.8554592630951 C 0.0 **** -0.24
28192 H 157.67319329188524 127.61076556718871 82.7254848103498 H 0.0 **** 0.06
28193 H 157.88199815101865 129.19279621011276 83.51641518585978 H 0.0 **** 0.06
28194 H 156.24961730695367 128.51689193722697 83.29316314395808 H 0.0 **** 0.06
28195 H 157.17129113454956 129.09906189684983 81.88644932959048 H 0.0 **** 0.06
28196 C 281.47339848618583 257.98090827765816 151.8310207395379 C 0.0 **** -0.24
28197 H 281.0458446132704 257.13794747499185 151.2883982928845 H 0.0 **** 0.06
28198 H 282.4193764487138 257.6807381568743 152.28188651073197 H 0.0 **** 0.06
28199 H 280.78226012898745 258.29605995543295 152.61279662905736 H 0.0 **** 0.06
28200 H 281.6435276875244 258.807954529563 151.14220443679943 H 0.0 **** 0.06
28201 C 169.65096458713384 60.887902406554986 286.8775479932753 C 0.0 **** -0.24
28202 H 169.739357810336 61.64332517518008 286.0955796838142 H 0.0 **** 0.06
28203 H 169.7319715201092 59.895331151169415 286.4340713521605 H 0.0 **** 0.06
28204 H 168.685344437904 60.98876972602537 287.3715782096799 H 0.0 **** 0.06
28205 H 170.44932887777043 61.02703370302444 287.6064569666664 H 0.0 **** 0.06
28206 C 166.80356553078718 33.8755338186744 308.97349154948586 C 0.0 **** -0.24
28207 H 167.38840228317383 32.95696688229077 309.0194383177853 H 0.0 **** 0.06
28208 H 166.54370790272208 34.19079281668536 309.9844658969437 H 0.0 **** 0.06
28209 H 165.8920900492398 33.6977064387809 308.40329314814574 H 0.0 **** 0.06
28210 H 167.39014902378966 34.6555589266672 308.4889505471311 H 0.0 **** 0.06
28211 C 72.12807921536202 306.8582918828266 307.30017494328087 C 0.0 **** -0.24
28212 H 71.27891872384464 306.1891768712541 307.44472222962673 H 0.0 **** 0.06
28213 H 72.41398455974971 306.8589942157513 306.2483370324156 H 0.0 **** 0.06
28214 H 72.96711600954038 306.51482243912926 307.90503967849844 H 0.0 **** 0.06
28215 H 71.85015014283897 307.8671319631817 307.60296772139895 H 0.0 **** 0.06
28216 C 132.9013655549788 37.54377962790625 134.85896898338464 C 0.0 **** -0.24
28217 H 132.03203679102114 37.13680228830282 134.34282530800178 H 0.0 **** 0.06
28218 H 133.68926338242832 37.751327989063384 134.13395584727544 H 0.0 **** 0.06
28219 H 133.2616250430555 36.82073353188841 135.59069010085827 H 0.0 **** 0.06
28220 H 132.62242108609624 38.467171741665766 135.36733434515895 H 0.0 **** 0.06
28221 C 111.23046645320426 218.6755011484039 140.67633800902806 C 0.0 **** -0.24
28222 H 110.45060674437892 218.73782296846838 139.91717651333894 H 0.0 **** 0.06
28223 H 112.20863015415293 218.72895495193802 140.1975250824357 H 0.0 **** 0.06
28224 H 111.13920026603779 217.73089917072417 141.21254313475572 H 0.0 **** 0.06
28225 H 111.12270642351433 219.50321774801301 141.37630540132213 H 0.0 **** 0.06
28226 C 151.38718379898012 37.30806339746795 64.12143614250786 C 0.0 **** -0.24
28227 H 152.34421849815192 36.7904178297282 64.05031649367854 H 0.0 **** 0.06
28228 H 150.62914595223862 36.61959633775513 64.4969186151499 H 0.0 **** 0.06
28229 H 151.09485838058976 37.66718003127437 63.134677588925655 H 0.0 **** 0.06
28230 H 151.48071391915227 38.15299182002673 64.8030044979891 H 0.0 **** 0.06
28231 C 149.47821466830845 257.3366791186102 92.2138495064855 C 0.0 **** -0.24
28232 H 148.67531942655 257.26471626043354 91.4808400090485 H 0.0 **** 0.06
28233 H 149.81755190881063 256.3359539503084 92.48011013433623 H 0.0 **** 0.06
28234 H 149.11153410573917 257.84554071120607 93.10560429166631 H 0.0 **** 0.06
28235 H 150.30846645751535 257.9011452123152 91.7896121381595 H 0.0 **** 0.06
28236 C 132.5720649463479 138.7041241767349 165.0971796342389 C 0.0 **** -0.24
28237 H 132.44198952933775 139.49623908757485 164.35959255111067 H 0.0 **** 0.06
28238 H 132.47610736986826 139.12185854725777 166.09901269712174 H 0.0 **** 0.06
28239 H 133.5607066707771 138.2602792677207 164.98198594734328 H 0.0 **** 0.06
28240 H 131.810049934693 137.939698649981 164.9470527428449 H 0.0 **** 0.06
28241 C 267.5670861287756 6.922570286117718 107.54768887292622 C 0.0 **** -0.24
28242 H 266.6731602364835 7.504113329539834 107.7715270611613 H 0.0 **** 0.06
28243 H 267.9967573557772 7.264492521210542 106.60525787864037 H 0.0 **** 0.06
28244 H 267.3032633867781 5.868063763350818 107.46433477204869 H 0.0 **** 0.06
28245 H 268.2947766586365 7.052901008173876 108.3484758259452 H 0.0 **** 0.06
28246 C 227.46453601714876 107.10222704468251 66.88153508925191 C 0.0 **** -0.24
28247 H 226.97905934227043 107.44943236058432 67.79404822361138 H 0.0 **** 0.06
28248 H 227.75346521446806 107.96083255458134 66.27498843036227 H 0.0 **** 0.06
28249 H 226.77337170639206 106.47544470627449 66.31919165339875 H 0.0 **** 0.06
28250 H 228.35241982601724 106.52453942314199 67.13995472305845 H 0.0 **** 0.06
28251 C 77.16371961580961 179.29976360007709 135.353764921446 C 0.0 **** -0.24
28252 H 76.7390685651234 178.80141298228364 134.48225043656154 H 0.0 **** 0.06
28253 H 77.43045463374375 180.32336308245067 135.09258514542552 H 0.0 **** 0.06
28254 H 78.053957720672 178.76256743409255 135.68057334386674 H 0.0 **** 0.06
28255 H 76.42895106181888 179.30890545517502 136.15927094356596 H 0.0 **** 0.06
28256 C 15.307212124130515 179.78373786237285 44.790249876171856 C 0.0 **** -0.24
28257 H 14.733119135948499 180.70687904268584 44.866682525439415 H 0.0 **** 0.06
28258 H 16.331398719673345 179.96612091501663 45.11541535541775 H 0.0 **** 0.06
28259 H 15.308646268183821 179.44264844580164 43.75506713753248 H 0.0 **** 0.06
28260 H 14.853867287282156 179.02085503716427 45.42437258566477 H 0.0 **** 0.06
28261 C 157.04574074863854 85.45800592617576 232.4576909160524 C 0.0 **** -0.24
28262 H 157.8956513955759 86.05402604013858 232.12582458119977 H 0.0 **** 0.06
28263 H 156.43473784456575 85.18598602435395 231.59697262624604 H 0.0 **** 0.06
28264 H 156.44667947360966 86.03926873829897 233.15844157109913 H 0.0 **** 0.06
28265 H 157.40511933771546 84.55483926749818 232.94959371192152 H 0.0 **** 0.06
28266 C 251.198459031295 86.69294112398381 272.9267435243528 C 0.0 **** -0.24
28267 H 252.1937486782551 86.25519329655194 272.999460135363 H 0.0 **** 0.06
28268 H 251.28175684451952 87.77955434535164 272.88550595534446 H 0.0 **** 0.06
28269 H 250.61110124700824 86.40620771082558 273.7984207169603 H 0.0 **** 0.06
28270 H 250.7076546844054 86.33160699559886 272.02316005292755 H 0.0 **** 0.06
28271 C 250.2406195512384 212.26177151632044 178.23670027278587 C 0.0 **** -0.24
28272 H 250.5431631139366 213.03119529262676 178.94802706231377 H 0.0 **** 0.06
28273 H 250.04993315914245 212.7196717336282 177.265475558189 H 0.0 **** 0.06
28274 H 249.33461617684026 211.77375114148845 178.5936307164685 H 0.0 **** 0.06
28275 H 251.03774343037642 211.52430806566198 178.140989606613 H 0.0 **** 0.06
28276 C 252.2061518014272 166.8253864200857 265.06529045008614 C 0.0 **** -0.24
28277 H 251.87793308248922 166.9671679439631 266.0949393327322 H 0.0 **** 0.06
28278 H 252.49968921249172 167.7867971162022 264.64328972295766 H 0.0 **** 0.06
28279 H 251.38958389512254 166.40502346548112 264.4776756155401 H 0.0 **** 0.06
28280 H 253.05657575690265 166.14463304321816 265.0451588568739 H 0.0 **** 0.06
28281 C 203.7918184002002 16.394899224013727 263.28740822240957 C 0.0 **** -0.24
28282 H 203.2549734725157 15.658859577451153 262.6882792580823 H 0.0 **** 0.06
28283 H 203.30709559223067 16.496622027576564 264.25777651088504 H 0.0 **** 0.06
28284 H 203.7837084235673 17.35638841104884 262.77312899327114 H 0.0 **** 0.06
28285 H 204.8223606463959 16.06662014808427 263.42761479532163 H 0.0 **** 0.06
28286 C 142.0851800337581 205.7627147387165 127.05369231154077 C 0.0 **** -0.24
28287 H 142.452405776969 206.56826599834085 126.41754863820046 H 0.0 **** 0.06
28288 H 141.21956660874906 206.1115352682978 127.61775524344853 H 0.0 **** 0.06
28289 H 142.8710735243331 205.45838530036838 127.74513382419468 H 0.0 **** 0.06
28290 H 141.79767422498117 204.91267238785917 126.43433154031922 H 0.0 **** 0.06
28291 C 222.02719085824015 16.221517119971907 34.052883298425456 C 0.0 **** -0.24
28292 H 223.1040025964574 16.37690820156189 33.98549307189859 H 0.0 **** 0.06
28293 H 221.6326037727905 15.978670693233994 33.065775908500484 H 0.0 **** 0.06
28294 H 221.5514143615913 17.130677991431185 34.42005162956957 H 0.0 **** 0.06
28295 H 221.82154951927464 15.400428791767865 34.73922865203656 H 0.0 **** 0.06
28296 C 179.83153552217533 80.77772339225322 34.936707665332165 C 0.0 **** -0.24
28297 H 179.32434545074335 81.71790928744844 34.7191391341255 H 0.0 **** 0.06
28298 H 179.8657448844097 80.625522631748 36.01547177199342 H 0.0 **** 0.06
28299 H 180.8477495968528 80.8133759219227 34.54302987158712 H 0.0 **** 0.06
28300 H 179.28918884083356 79.95611163241094 34.469520828694954 H 0.0 **** 0.06
28301 C 135.62463766245034 306.697250588955 209.69179538989147 C 0.0 **** -0.24
28302 H 135.0632368399218 307.43985107881605 210.25947926531515 H 0.0 **** 0.06
28303 H 134.9507378888165 305.90713564485947 209.36051783187295 H 0.0 **** 0.06
28304 H 136.40333374795793 306.27001996938793 210.32347707651718 H 0.0 **** 0.06
28305 H 136.0818981775532 307.1731362445066 208.82422578767512 H 0.0 **** 0.06
28306 C 45.222606921559645 257.6622702705458 21.425243046108136 C 0.0 **** -0.24
28307 H 44.788864927972355 257.74518141827207 20.428845046697177 H 0.0 **** 0.06
28308 H 45.472052913411034 258.6567455261835 21.79572518418081 H 0.0 **** 0.06
28309 H 46.126213395306536 257.05431503407465 21.37784977493243 H 0.0 **** 0.06
28310 H 44.50301241241081 257.1932497312516 22.096372561592858 H 0.0 **** 0.06
28311 C 111.61993169633155 41.56296490967733 209.2576664323998 C 0.0 **** -0.24
28312 H 111.28499931193642 40.543793168611046 209.44855804185383 H 0.0 **** 0.06
28313 H 111.22356301794892 41.90206088282844 208.30060784405777 H 0.0 **** 0.06
28314 H 112.70934867649001 41.58835615458838 209.23023873611368 H 0.0 **** 0.06
28315 H 111.26059512805983 42.21743021252814 210.0519407861247 H 0.0 **** 0.06
28316 C 75.82689231855434 105.5386672277603 90.35828490068502 C 0.0 **** -0.24
28317 H 75.62448704233142 106.5270090448544 89.94456650551777 H 0.0 **** 0.06
28318 H 75.11258425530801 104.82181231219164 89.95148841902287 H 0.0 **** 0.06
28319 H 75.7292967585172 105.57289606892371 91.44287875934936 H 0.0 **** 0.06
28320 H 76.83837746428341 105.23382468766093 90.09239926839166 H 0.0 **** 0.06
28321 C 27.103764434828634 29.813220440901887 40.56337613542317 C 0.0 **** -0.24
28322 H 26.837249863179153 29.829467932125112 41.62055935312799 H 0.0 **** 0.06
28323 H 26.35806355980887 30.36750326334584 39.99351026749727 H 0.0 **** 0.06
28324 H 27.13576021591564 28.78059010674812 40.212943228649294 H 0.0 **** 0.06
28325 H 28.082106094642114 30.273303344107063 40.42712759196178 H 0.0 **** 0.06
28326 C 293.06386002009 64.13926689038593 45.85836292619254 C 0.0 **** -0.24
28327 H 292.48594442776164 64.51487650338495 45.013497055090994 H 0.0 **** 0.06
28328 H 292.560392417868 64.40491531010076 46.78880725450574 H 0.0 **** 0.06
28329 H 294.05903064952236 64.58277628253268 45.843899745168244 H 0.0 **** 0.06
28330 H 293.14783893401403 63.0550629220088 45.78808032410262 H 0.0 **** 0.06
28331 C 232.64445292123494 117.31171396990766 97.05416198776214 C 0.0 **** -0.24
28332 H 233.1918286133226 116.56122381628174 96.4837562273728 H 0.0 **** 0.06
28333 H 232.2225284447016 118.04932825547428 96.37139244207131 H 0.0 **** 0.06
28334 H 233.32269703847254 117.8048672761096 97.74963957802726 H 0.0 **** 0.06
28335 H 231.84049478526302 116.8296944073875 97.61048276506833 H 0.0 **** 0.06
28336 C 279.4174309004672 271.1309056951095 289.2845757788257 C 0.0 **** -0.24
28337 H 279.83871086163936 272.1353986756547 289.3101764028452 H 0.0 **** 0.06
28338 H 279.84178740831703 270.53799912124305 290.09431443741215 H 0.0 **** 0.06
28339 H 279.65393793749104 270.66284565145617 288.328098087056 H 0.0 **** 0.06
28340 H 278.33527770226056 271.1874867953631 289.40239931133425 H 0.0 **** 0.06
28341 C 200.45567394980037 22.94670479032567 272.672832032831 C 0.0 **** -0.24
28342 H 200.57004294047186 23.321732176949098 273.6890458565927 H 0.0 **** 0.06
28343 H 200.97788067234694 21.994955403438098 272.5754893752904 H 0.0 **** 0.06
28344 H 200.87735244785478 23.665920727705867 271.9709075153813 H 0.0 **** 0.06
28345 H 199.39689352156995 22.804723428689783 272.4546769259116 H 0.0 **** 0.06
28346 C 233.34053280986615 82.23109833881517 5.593401825094702 C 0.0 **** -0.24
28347 H 232.95784225723685 81.96540252478849 6.577963157691784 H 0.0 **** 0.06
28348 H 234.01691910315742 83.08054958106948 5.683831440560311 H 0.0 **** 0.06
28349 H 232.50956066157954 82.49592688215682 4.938875671586061 H 0.0 **** 0.06
28350 H 233.87871471113766 81.3815271902672 5.17114661567706 H 0.0 **** 0.06
28351 C 5.54556765437745 209.16634224270084 197.9711869019037 C 0.0 **** -0.24
28352 H 5.695085509969374 208.31138582114397 197.31205544574436 H 0.0 **** 0.06
28353 H 4.73815783583494 209.78748226599106 197.58388623750915 H 0.0 **** 0.06
28354 H 6.463984370059379 209.7523825853931 198.01942390268084 H 0.0 **** 0.06
28355 H 5.286676270651029 208.81451730902603 198.96979784570965 H 0.0 **** 0.06
28356 C 131.5623509113979 111.68718105246 117.68603923175402 C 0.0 **** -0.24
28357 H 130.7255506124992 112.37652343172812 117.79662716891406 H 0.0 **** 0.06
28358 H 132.37811731818127 112.1870149958551 117.16322516253712 H 0.0 **** 0.06
28359 H 131.24205687488632 110.8174719699191 117.11278868479167 H 0.0 **** 0.06
28360 H 131.90265106866326 111.36759276341348 118.67055204242541 H 0.0 **** 0.06
28361 C 81.71212709222493 134.91814568656352 123.1824212290694 C 0.0 **** -0.24
28362 H 81.39595911157028 134.84453763770725 124.2226721653303 H 0.0 **** 0.06
28363 H 82.41113499051093 134.11276994808026 122.95807055364293 H 0.0 **** 0.06
28364 H 82.1986911936732 135.87926085879258 123.01722937284902 H 0.0 **** 0.06
28365 H 80.84146207545899 134.83537421768523 122.53172647466732 H 0.0 **** 0.06
28366 C 146.5582575785334 182.97520736847702 187.0911503272324 C 0.0 **** -0.24
28367 H 146.5768140229676 182.13017455307528 187.77906714428804 H 0.0 **** 0.06
28368 H 145.53700651074953 183.34473945309804 186.99815761157282 H 0.0 **** 0.06
28369 H 146.91925872476148 182.6555112747132 186.11445031051977 H 0.0 **** 0.06
28370 H 147.19943225879575 183.76913702830808 187.47438403588814 H 0.0 **** 0.06
28371 C 306.6013548642758 112.95182865912147 88.59263112229931 C 0.0 **** -0.24
28372 H 305.8211096973188 113.7054754423464 88.69240260766745 H 0.0 **** 0.06
28373 H 306.2844781643086 112.19382059453784 87.87606411037763 H 0.0 **** 0.06
28374 H 306.77967230430284 112.4846239784284 89.56095236298069 H 0.0 **** 0.06
28375 H 307.51930169213756 113.42329577797611 88.24161014416168 H 0.0 **** 0.06
28376 C 61.733718159241164 167.6397676725851 129.15997361703762 C 0.0 **** -0.24
28377 H 60.751879822459415 168.11385651459932 129.15919693261066 H 0.0 **** 0.06
28378 H 61.674025909514256 166.68006663817437 129.67417699492515 H 0.0 **** 0.06
28379 H 62.446970610379594 168.28367753946782 129.67326239386523 H 0.0 **** 0.06
28380 H 62.06052501049504 167.48156520775927 128.13157699218053 H 0.0 **** 0.06
28381 C 204.0998671017254 66.89339201951464 97.01043705797457 C 0.0 **** -0.24
28382 H 205.1312914296434 67.2451169897015 96.97333241185328 H 0.0 **** 0.06
28383 H 204.07532602078135 65.82007443166742 96.82304591832062 H 0.0 **** 0.06
28384 H 203.51273007754503 67.41009961865086 96.25062212921 H 0.0 **** 0.06
28385 H 203.6820474904278 67.10066147007501 97.99552410816136 H 0.0 **** 0.06
28386 C 180.004951670534 158.2190792731464 239.99628684990012 C 0.0 **** -0.24
28387 H 180.99306431828148 158.6409818864368 239.80850522917626 H 0.0 **** 0.06
28388 H 179.68964720789927 157.63453885149772 239.1330464818253 H 0.0 **** 0.06
28389 H 179.29242502126243 159.0264110932784 240.16886280836482 H 0.0 **** 0.06
28390 H 180.04630957542037 157.5770471226798 240.87584048034915 H 0.0 **** 0.06
28391 C 225.00290779634668 273.71071387520186 151.93553490274968 C 0.0 **** -0.24
28392 H 225.83732449018288 274.2672099936749 152.36261241580502 H 0.0 **** 0.06
28393 H 225.03813867564855 272.67842788920126 152.28541314364315 H 0.0 **** 0.06
28394 H 225.07391703571273 273.7283360875141 150.84752686047432 H 0.0 **** 0.06
28395 H 224.0635936054563 274.16891376122965 152.2461440913322 H 0.0 **** 0.06
28396 C 236.5743066605205 48.51365458954828 224.56685496133144 C 0.0 **** -0.24
28397 H 236.70668863975325 48.39614797733168 225.6432468815591 H 0.0 **** 0.06
28398 H 236.43850878112048 47.53383070341138 224.1082577075 H 0.0 **** 0.06
28399 H 237.45660236551242 48.99466182776811 224.14392508736856 H 0.0 **** 0.06
28400 H 235.69637226580684 49.13039750840318 224.37480621698123 H 0.0 **** 0.06
28401 C 293.74447379038577 69.69650697488524 45.22262563715876 C 0.0 **** -0.24
28402 H 292.91133724510735 69.2530863501508 45.766577831527115 H 0.0 **** 0.06
28403 H 294.500840304696 68.93438129632437 45.03277174608053 H 0.0 **** 0.06
28404 H 294.17922707435264 70.49975793193678 45.81702182610721 H 0.0 **** 0.06
28405 H 293.386626678374 70.0982489245801 44.27542545048587 H 0.0 **** 0.06
28406 C 173.15430627254165 273.8623424277549 250.9440871313743 C 0.0 **** -0.24
28407 H 173.5669351204495 272.91277610474253 251.28488117755515 H 0.0 **** 0.06
28408 H 172.06982627436707 273.7803889073617 250.86608003182695 H 0.0 **** 0.06
28409 H 173.5717695820136 274.11071293297744 249.9678085688018 H 0.0 **** 0.06
28410 H 173.40985699161814 274.646294886058 251.65763091225168 H 0.0 **** 0.06
28411 C 227.9939389504474 9.452492842946398 186.79365233190498 C 0.0 **** -0.24
28412 H 227.0070715662972 9.059741683532351 187.0367688452398 H 0.0 **** 0.06
28413 H 228.64675180889574 9.35516067220054 187.6604326761202 H 0.0 **** 0.06
28414 H 227.9089453252568 10.503701428508762 186.51896170314438 H 0.0 **** 0.06
28415 H 228.4120927519441 8.890992026903902 185.9582030025863 H 0.0 **** 0.06
28416 C 292.5467879184471 108.72031350586653 29.45339098223363 C 0.0 **** -0.24
28417 H 292.1395042386558 109.70492788945307 29.223889632860818 H 0.0 **** 0.06
28418 H 292.98953415101903 108.2925766649474 28.55420506387449 H 0.0 **** 0.06
28419 H 291.7474442795856 108.0718225946755 29.81061728382403 H 0.0 **** 0.06
28420 H 293.3107655017939 108.81464787117963 30.22561804286832 H 0.0 **** 0.06
28421 C 263.2836185752446 42.1676203002294 53.620479705709414 C 0.0 **** -0.24
28422 H 262.38551545371416 42.03485880501785 54.22333334995366 H 0.0 **** 0.06
28423 H 264.16421938478067 41.97075821050811 54.232034185953495 H 0.0 **** 0.06
28424 H 263.32205521406786 43.19036791061498 53.245955609504136 H 0.0 **** 0.06
28425 H 263.2621937507752 41.47362082663179 52.779599177744444 H 0.0 **** 0.06
28426 C 85.67754477804593 101.68708631461826 47.44693799679902 C 0.0 **** -0.24
28427 H 86.15223749161561 101.072894398762 48.21257202888253 H 0.0 **** 0.06
28428 H 85.39071992118292 102.64658127013857 47.877746868024985 H 0.0 **** 0.06
28429 H 84.791232884962 101.17710200470944 47.07069528568911 H 0.0 **** 0.06
28430 H 86.37756888573722 101.85032259176697 46.62738231380021 H 0.0 **** 0.06
28431 C 240.01468139862692 176.12708070584694 241.84766375336488 C 0.0 **** -0.24
28432 H 239.23458839516599 175.9931574822769 242.5960819649033 H 0.0 **** 0.06
28433 H 240.72865264539539 176.8730611747273 242.19632483155524 H 0.0 **** 0.06
28434 H 239.56672652802283 176.46266053959312 240.91196456975197 H 0.0 **** 0.06
28435 H 240.52789669616942 175.17932326270437 241.68478576973388 H 0.0 **** 0.06
28436 C 163.9082638229894 37.894268711657475 207.51608427339102 C 0.0 **** -0.24
28437 H 163.49066689817914 37.78897319712914 206.51551243375735 H 0.0 **** 0.06
28438 H 163.68024201414966 38.88798157156273 207.90256475149238 H 0.0 **** 0.06
28439 H 164.98907712932538 37.75864612657344 207.47507864221097 H 0.0 **** 0.06
28440 H 163.4726011844649 37.14063105793798 208.17221589359582 H 0.0 **** 0.06
28441 C 157.5471509432312 12.276150715504997 196.61445165049838 C 0.0 **** -0.24
28442 H 158.00857037302973 13.113608956430113 196.09099090207434 H 0.0 **** 0.06
28443 H 157.6699340820672 12.407756305058115 197.69003085483342 H 0.0 **** 0.06
28444 H 158.02525810008308 11.34746458361667 196.30424855380267 H 0.0 **** 0.06
28445 H 156.48508688479853 12.23670265899176 196.37109565711125 H 0.0 **** 0.06
28446 C 216.03747283613413 292.05311807466313 17.91484682391024 C 0.0 **** -0.24
28447 H 216.7659373634282 292.7902681430353 18.252356169689165 H 0.0 **** 0.06
28448 H 215.66648822907504 292.33419053150897 16.929163788792437 H 0.0 **** 0.06
28449 H 215.2056830953428 292.015448030906 18.61885403164139 H 0.0 **** 0.06
28450 H 216.51178265669049 291.07256559320234 17.859013305517948 H 0.0 **** 0.06
28451 C 170.3233416874997 121.45084033347425 212.60713150521502 C 0.0 **** -0.24
28452 H 169.92388067325368 121.88874334086663 211.69200353206617 H 0.0 **** 0.06
28453 H 171.2088455473227 122.00582027369288 212.919002529683 H 0.0 **** 0.06
28454 H 170.5922339309916 120.41005109950481 212.42464017626153 H 0.0 **** 0.06
28455 H 169.56869391771102 121.49857954411004 213.39150517660033 H 0.0 **** 0.06
28456 C 240.81789037600547 216.20599484362927 59.54290325284566 C 0.0 **** -0.24
28457 H 240.26688105935455 216.2846032253993 60.47955676442456 H 0.0 **** 0.06
28458 H 241.5564560318777 217.00673288465174 59.48714736461321 H 0.0 **** 0.06
28459 H 240.12576175645023 216.29038814743035 58.70532872340124 H 0.0 **** 0.06
28460 H 241.32434664620905 215.2416685962159 59.49925367232703 H 0.0 **** 0.06
28461 C 169.8866938459364 75.14476694209577 6.003254886175853 C 0.0 **** -0.24
28462 H 169.97703466780803 75.7115274266749 6.9295849764245645 H 0.0 **** 0.06
28463 H 170.50444292487265 74.24882934382703 6.063597613815375 H 0.0 **** 0.06
28464 H 170.21901345108034 75.76046927162278 5.167743264979094 H 0.0 **** 0.06
28465 H 168.84589458240498 74.85912006309891 5.852370488917927 H 0.0 **** 0.06
28466 C 121.98864854286685 176.97789444427673 7.915852131811235 C 0.0 **** -0.24
28467 H 122.3746153363881 177.96692314026393 7.668184563309808 H 0.0 **** 0.06
28468 H 122.41598548400461 176.24112980691393 7.235299885463405 H 0.0 **** 0.06
28469 H 120.90310171711306 176.97768985556252 7.8181260014784755 H 0.0 **** 0.06
28470 H 122.26242419071406 176.72821897338514 8.940814278738173 H 0.0 **** 0.06
28471 C 267.8457788457793 211.26140500149285 141.16544934730103 C 0.0 **** -0.24
28472 H 268.92669480740557 211.13732165189708 141.22418904640693 H 0.0 **** 0.06
28473 H 267.56021757751057 212.19817066942613 141.64577132572913 H 0.0 **** 0.06
28474 H 267.35677267639414 210.4292869825614 141.67275194183472 H 0.0 **** 0.06
28475 H 267.53816144505055 211.28059209175268 140.12023753268917 H 0.0 **** 0.06
28476 C 164.89175773840816 171.56842856462833 295.53946705681017 C 0.0 **** -0.24
28477 H 165.57159857545798 170.72789951181528 295.68310097691665 H 0.0 **** 0.06
28478 H 164.1421301378897 171.5679892983934 296.33061345060224 H 0.0 **** 0.06
28479 H 164.40008295438895 171.4765284135604 294.5716459920606 H 0.0 **** 0.06
28480 H 165.45534374087083 172.5000300961736 295.57420533475783 H 0.0 **** 0.06
28481 C 100.37562026430788 67.07645540860582 154.96393249996777 C 0.0 **** -0.24
28482 H 99.8974018703405 66.39183414002827 155.66489985952126 H 0.0 **** 0.06
28483 H 99.7288042147733 67.93914111663818 154.80021712803557 H 0.0 **** 0.06
28484 H 100.54603989536673 66.56530354689849 154.01645412382527 H 0.0 **** 0.06
28485 H 101.32863684296379 67.40915335459349 155.37470107896183 H 0.0 **** 0.06
28486 C 15.863826562890011 117.84104981345291 148.95909186144826 C 0.0 **** -0.24
28487 H 16.74905296879622 117.78067996452643 148.32563464621495 H 0.0 **** 0.06
28488 H 15.955709785880984 117.13026865174965 149.7798323561732 H 0.0 **** 0.06
28489 H 14.97873462808819 117.60422240113198 148.3687966871015 H 0.0 **** 0.06
28490 H 15.77361913702228 118.85079442377881 149.35995816532824 H 0.0 **** 0.06
28491 C 37.594092743690226 260.1901190520603 275.5956609537626 C 0.0 **** -0.24
28492 H 37.84381281846129 259.1293207362942 275.58973089469305 H 0.0 **** 0.06
28493 H 38.3304764808789 260.7389407649794 275.0073752447098 H 0.0 **** 0.06
28494 H 37.59997722723915 260.55837495668516 276.62128481708777 H 0.0 **** 0.06
28495 H 36.60390775671516 260.33237759260044 275.1634717053978 H 0.0 **** 0.06
28496 C 121.57627165485627 55.79265149653202 177.25284758634655 C 0.0 **** -0.24
28497 H 120.59633154296239 55.97149720164438 177.69563753862224 H 0.0 **** 0.06
28498 H 121.53355778655265 54.902732477287856 176.62472895461127 H 0.0 **** 0.06
28499 H 122.30986067457326 55.64381760330858 178.04514612354376 H 0.0 **** 0.06
28500 H 121.86417945491198 56.652077941095456 176.6477297192688 H 0.0 **** 0.06
28501 C 168.48576314056692 85.62988139748757 29.569858729514465 C 0.0 **** -0.24
28502 H 167.92901078643547 85.51059750575638 30.499059201474353 H 0.0 **** 0.06
28503 H 167.83914631591267 85.39356387191424 28.725489702494684 H 0.0 **** 0.06
28504 H 169.342979142008 84.95695436153665 29.570989689149712 H 0.0 **** 0.06
28505 H 168.83312153875215 86.65984019916897 29.48512171002966 H 0.0 **** 0.06
28506 C 167.41838790761756 21.34437901672402 139.2935472117188 C 0.0 **** -0.24
28507 H 166.4934379334979 21.043300481242795 139.78593487723143 H 0.0 **** 0.06
28508 H 167.2128052102916 21.583567587542575 138.25040583591394 H 0.0 **** 0.06
28509 H 168.13926615302626 20.528205274463232 139.34477541834198 H 0.0 **** 0.06
28510 H 167.82741779862414 22.221896839377962 139.79421813031968 H 0.0 **** 0.06
28511 C 84.45653273555615 44.7226551752662 135.01864019325347 C 0.0 **** -0.24
28512 H 84.47089746173052 43.65149582559451 135.21832657064678 H 0.0 **** 0.06
28513 H 85.45147867595202 45.135934962750326 135.18467857350444 H 0.0 **** 0.06
28514 H 83.7455301090271 45.20679002820856 135.68919747323224 H 0.0 **** 0.06
28515 H 84.15832410285145 44.895836522576246 133.98512813352477 H 0.0 **** 0.06
28516 C 189.79036290980537 306.7274700380159 93.69709211518096 C 0.0 **** -0.24
28517 H 189.4655269832108 306.20606873605226 92.79732956436132 H 0.0 **** 0.06
28518 H 189.93123225724145 306.00719460586424 94.50304464428783 H 0.0 **** 0.06
28519 H 189.033908093621 307.45551516243364 93.98821537598056 H 0.0 **** 0.06
28520 H 190.73207261393162 307.2399662517912 93.49955271224374 H 0.0 **** 0.06
28521 C 99.68394361148938 293.96688450650765 133.86710428207243 C 0.0 **** -0.24
28522 H 99.33155055592292 294.0819764659649 132.84166177804948 H 0.0 **** 0.06
28523 H 100.39333196252844 294.76070041788716 134.09911249775382 H 0.0 **** 0.06
28524 H 100.17270851608512 292.9979689672254 133.97581445655487 H 0.0 **** 0.06
28525 H 98.83666374203824 294.0253562259352 134.55067449272997 H 0.0 **** 0.06
28526 C 192.06960015981002 3.5511212214408374 88.17927768362301 C 0.0 **** -0.24
28527 H 191.71658605998147 4.41715288709554 87.62038901463686 H 0.0 **** 0.06
28528 H 193.14029914783282 3.650612511530767 88.36524951668753 H 0.0 **** 0.06
28529 H 191.88424135545182 2.6450247906039976 87.6024451935346 H 0.0 **** 0.06
28530 H 191.53947996026494 3.4915214419436325 89.13007776381949 H 0.0 **** 0.06
28531 C 129.32109832243196 242.66019205711115 116.22603468978409 C 0.0 **** -0.24
28532 H 128.86115164964272 243.22882763215438 115.41736232455503 H 0.0 **** 0.06
28533 H 129.73937682738517 243.34809231269816 116.96039950217954 H 0.0 **** 0.06
28534 H 130.11400416055287 242.03166305056186 115.82207062642496 H 0.0 **** 0.06
28535 H 128.56708912993474 242.03315035602415 116.70276123259166 H 0.0 **** 0.06
28536 C 240.80242565060755 301.2678452309459 91.12380131312904 C 0.0 **** -0.24
28537 H 240.73264059184126 302.346573618717 91.26005275851261 H 0.0 **** 0.06
28538 H 241.7695937681354 301.0193916605231 90.68716759440508 H 0.0 **** 0.06
28539 H 240.0066182820017 300.93277780728477 90.45870372415581 H 0.0 **** 0.06
28540 H 240.70084996045185 300.7726378372588 92.0892811754427 H 0.0 **** 0.06
28541 C 20.65342092324545 136.45599577496833 171.27946193557676 C 0.0 **** -0.24
28542 H 21.416202261417737 135.69956394010083 171.46204302970983 H 0.0 **** 0.06
28543 H 21.098924476235084 137.4481214412653 171.36023075337772 H 0.0 **** 0.06
28544 H 19.857592204058875 136.35373730022053 172.01774183331258 H 0.0 **** 0.06
28545 H 20.240783247123318 136.32292518260834 170.27951557972074 H 0.0 **** 0.06
28546 C 122.08586431429583 296.5370944467045 172.6594181236606 C 0.0 **** -0.24
28547 H 121.25778636274899 297.2301759388642 172.80459834631807 H 0.0 **** 0.06
28548 H 123.0227895328027 297.0926705216476 172.62113354225244 H 0.0 **** 0.06
28549 H 121.94677556015588 295.9953933170093 171.72394575444645 H 0.0 **** 0.06
28550 H 122.11592204902553 295.82846217683164 173.48759756823176 H 0.0 **** 0.06
28551 C 152.760333316527 28.99400980658021 131.5475706160676 C 0.0 **** -0.24
28552 H 153.56976024640642 29.568324470450307 131.99723388781183 H 0.0 **** 0.06
28553 H 152.14562363399733 28.5556757529759 132.33349084845315 H 0.0 **** 0.06
28554 H 153.17836810717841 28.200419114275974 130.92765200838753 H 0.0 **** 0.06
28555 H 152.147252167771 29.651083132917222 130.93112881297526 H 0.0 **** 0.06
28556 C 77.18399755148363 311.9544389102625 192.7018760361891 C 0.0 **** -0.24
28557 H 77.40645453341196 311.25959447766695 191.8921628432293 H 0.0 **** 0.06
28558 H 78.07949062153074 312.1086750727286 193.3052024195153 H 0.0 **** 0.06
28559 H 76.39231985474379 311.5411968457697 193.32689425261617 H 0.0 **** 0.06
28560 H 76.85758029982054 312.9065013706853 192.28457974489123 H 0.0 **** 0.06
28561 C 42.00296948125316 291.12743012720495 181.65502414083318 C 0.0 **** -0.24
28562 H 41.58487246397647 292.13063516609895 181.75009197847442 H 0.0 **** 0.06
28563 H 42.834482605057815 291.01408970967884 182.35068585826502 H 0.0 **** 0.06
28564 H 42.35714486460654 290.97730083600794 180.63549270893196 H 0.0 **** 0.06
28565 H 41.23340271462985 290.3906926123031 181.8841598498709 H 0.0 **** 0.06
28566 C 63.732278425838615 247.27435641692074 190.0920777227928 C 0.0 **** -0.24
28567 H 64.09610179876589 246.246492353645 190.09053689339436 H 0.0 **** 0.06
28568 H 64.54208099185911 247.9451948318141 190.37710749379193 H 0.0 **** 0.06
28569 H 62.913751913801974 247.3684135149452 190.80584516546497 H 0.0 **** 0.06
28570 H 63.37697513739704 247.53510822989682 189.09503237967937 H 0.0 **** 0.06
28571 C 63.270814689828256 243.3321062030742 149.4792092461683 C 0.0 **** -0.24
28572 H 62.66841166622237 242.95714835903794 148.65110987569943 H 0.0 **** 0.06
28573 H 62.64734808447636 243.9378449842315 150.13635555264244 H 0.0 **** 0.06
28574 H 64.08632495374076 243.9399818884421 149.0886717883344 H 0.0 **** 0.06
28575 H 63.68058340140493 242.4911072437245 150.0384271844356 H 0.0 **** 0.06
28576 C 131.52872744984435 146.9547607476094 139.21937043466323 C 0.0 **** -0.24
28577 H 131.75932502274387 148.00403347264032 139.0362151563255 H 0.0 **** 0.06
28578 H 132.37563534026688 146.3386801197392 138.9131498504465 H 0.0 **** 0.06
28579 H 130.64677780939212 146.67135883806137 138.64512785662734 H 0.0 **** 0.06
28580 H 131.33545931745851 146.8049673173905 140.2808056421545 H 0.0 **** 0.06
28581 C 127.97847994878236 31.298273154012065 210.36724883277324 C 0.0 **** -0.24
28582 H 127.94240582408472 32.29908518666247 209.93679176952858 H 0.0 **** 0.06
28583 H 128.48719700783124 31.335840676541153 211.33148272211264 H 0.0 **** 0.06
28584 H 128.52015408222636 30.633216653298717 209.69580164424838 H 0.0 **** 0.06
28585 H 126.96279319304514 30.92698760777347 210.5063236706171 H 0.0 **** 0.06
28586 C 279.0723512142289 116.75859263893008 105.96268088251836 C 0.0 **** -0.24
28587 H 278.93812578060476 117.10117909523089 104.93664657364474 H 0.0 **** 0.06
28588 H 278.1421204707179 116.89202665582897 106.51515665400294 H 0.0 **** 0.06
28589 H 279.86390995615017 117.33726006906926 106.43790094681609 H 0.0 **** 0.06
28590 H 279.3456054257373 115.70305532942942 105.95994640227713 H 0.0 **** 0.06
28591 C 104.42545708305747 285.31997633605704 110.35124124361789 C 0.0 **** -0.24
28592 H 105.2402357165532 284.6676716731921 110.03579432476835 H 0.0 **** 0.06
28593 H 104.75826341910488 286.3568839800325 110.32159626593048 H 0.0 **** 0.06
28594 H 104.12636415656604 285.0617558359286 111.36692620609008 H 0.0 **** 0.06
28595 H 103.57774453412569 285.1905357039305 109.6786381618779 H 0.0 **** 0.06
28596 C 181.8668935526316 234.9724616242388 314.2277973602963 C 0.0 **** -0.24
28597 H 182.23141222604596 234.63981803474894 313.25613655167564 H 0.0 **** 0.06
28598 H 180.90567994937453 235.47087759357865 314.1047190208459 H 0.0 **** 0.06
28599 H 182.58353336439768 235.66742398373736 314.6658613402782 H 0.0 **** 0.06
28600 H 181.74811806421138 234.11174073441617 314.8852677239784 H 0.0 **** 0.06
28601 C 95.73297378166941 272.9705981103164 307.37256791863354 C 0.0 **** -0.24
28602 H 95.0220613533152 273.79219709828715 307.46553014991605 H 0.0 **** 0.06
28603 H 96.74870876392731 273.36354704356177 307.40889874116255 H 0.0 **** 0.06
28604 H 95.57471303212242 272.45959285416956 306.4221398469123 H 0.0 **** 0.06
28605 H 95.58427670370014 272.2678488742613 308.1920262991281 H 0.0 **** 0.06
28606 C 307.8880468028935 27.39628578578916 310.3221085372489 C 0.0 **** -0.24
28607 H 307.99331773061226 26.713145621442067 309.47859629498083 H 0.0 **** 0.06
28608 H 308.34883092366624 28.35241288195499 310.07438022050326 H 0.0 **** 0.06
28609 H 308.3806400349135 26.970338403014807 311.1965466926402 H 0.0 **** 0.06
28610 H 306.83007330509076 27.546231247926528 310.5377048893574 H 0.0 **** 0.06
28611 C 185.70146743400613 276.16097721673964 92.36706039820899 C 0.0 **** -0.24
28612 H 184.81004260319548 276.7747612006019 92.4971270847121 H 0.0 **** 0.06
28613 H 185.65301115673185 275.64954398512646 91.40556604565114 H 0.0 **** 0.06
28614 H 185.75426502011635 275.42382659971236 93.16903779082043 H 0.0 **** 0.06
28615 H 186.5873945470874 276.79550461369865 92.39840500590844 H 0.0 **** 0.06
28616 C 109.86277831749655 261.29482628953804 35.64743479676619 C 0.0 **** -0.24
28617 H 110.9145972119116 261.56998532896864 35.56242378844689 H 0.0 **** 0.06
28618 H 109.42612652890944 261.2179296035158 34.65162685060682 H 0.0 **** 0.06
28619 H 109.33338704855944 262.05664251620567 36.219980229516665 H 0.0 **** 0.06
28620 H 109.77940831154683 260.3346250160098 36.15615210990623 H 0.0 **** 0.06
28621 C 109.3021048119837 69.13895052135874 276.8034371981414 C 0.0 **** -0.24
28622 H 110.27447156570287 69.62450712100878 276.88778194292536 H 0.0 **** 0.06
28623 H 108.99062539524738 68.77774816186744 277.7834702474354 H 0.0 **** 0.06
28624 H 109.37382275062441 68.29991665040401 276.1117226267297 H 0.0 **** 0.06
28625 H 108.56958084626152 69.85645611925293 276.4306883327062 H 0.0 **** 0.06
28626 C 22.924913979432205 249.72256808195903 45.966009002190276 C 0.0 **** -0.24
28627 H 21.86604015014123 249.54728162140128 45.77254007436457 H 0.0 **** 0.06
28628 H 23.44963167086351 249.85311470279453 45.018884786503236 H 0.0 **** 0.06
28629 H 23.343205491138406 248.86928075140335 46.49937406495741 H 0.0 **** 0.06
28630 H 23.039500848910052 250.62172104577832 46.57178796275642 H 0.0 **** 0.06
28631 C 143.02082932181804 253.1256036235437 43.01547190374134 C 0.0 **** -0.24
28632 H 142.92536292763486 252.3882794260398 42.21929947344489 H 0.0 **** 0.06
28633 H 143.38611126565573 252.6378640577327 43.919923988169984 H 0.0 **** 0.06
28634 H 142.04702377774794 253.57505239588608 43.213484326733806 H 0.0 **** 0.06
28635 H 143.7236255811103 253.90149579469977 42.71130072138499 H 0.0 **** 0.06
28636 C 114.80998173333774 199.02310786946703 134.32988147655666 C 0.0 **** -0.24
28637 H 115.06978613089461 198.85698645250085 133.28433822041416 H 0.0 **** 0.06
28638 H 115.16142626249197 200.00781042560806 134.63947309924174 H 0.0 **** 0.06
28639 H 115.28142660754821 198.2582269498419 134.94788492670776 H 0.0 **** 0.06
28640 H 113.72728793241612 198.9694076499173 134.44782965986286 H 0.0 **** 0.06
28641 C 167.25737451544813 153.01836337797414 27.75644180598249 C 0.0 **** -0.24
28642 H 168.31946674230193 153.2460654099213 27.849383928586803 H 0.0 **** 0.06
28643 H 167.0624417684342 152.0245732879407 28.162434221666786 H 0.0 **** 0.06
28644 H 166.9714401743102 153.04304510495803 26.70511849091349 H 0.0 **** 0.06
28645 H 166.67725515305978 153.75683076998934 28.30920466940387 H 0.0 **** 0.06
28646 C 313.0970684912315 300.35565478108305 128.87178695086607 C 0.0 **** -0.24
28647 H 312.4622615985107 300.6594048261811 128.0391967331929 H 0.0 **** 0.06
28648 H 313.95737918391285 299.80695592868517 128.49097935785178 H 0.0 **** 0.06
28649 H 312.5280078057999 299.71788301608467 129.54802985178247 H 0.0 **** 0.06
28650 H 313.4394162778902 301.2411198681943 129.40901774890884 H 0.0 **** 0.06
28651 C 312.00248746074965 179.76937930887965 166.40017001015968 C 0.0 **** -0.24
28652 H 312.75643008166094 180.32828693433686 165.8456683047367 H 0.0 **** 0.06
28653 H 312.39932818085424 179.49544768089407 167.37723001434898 H 0.0 **** 0.06
28654 H 311.74110322665996 178.86639957805698 165.84790445765282 H 0.0 **** 0.06
28655 H 311.1136915658692 180.38755904805964 166.52797853401216 H 0.0 **** 0.06
28656 C 124.06009921281654 28.157436768194316 24.871687632686815 C 0.0 **** -0.24
28657 H 124.28492305920864 27.148573190091156 24.526811038584555 H 0.0 **** 0.06
28658 H 124.99053243296714 28.68604304809361 25.081112506153175 H 0.0 **** 0.06
28659 H 123.45900334475078 28.106041644479546 25.77956243077736 H 0.0 **** 0.06
28660 H 123.5062222742209 28.69047532215302 24.098265631913648 H 0.0 **** 0.06
28661 C 102.27334318647254 277.49531047016575 157.39140444968518 C 0.0 **** -0.24
28662 H 101.36277914226781 277.42032621183216 156.7964449257222 H 0.0 **** 0.06
28663 H 102.9108073738484 278.27988255307633 156.98244429118012 H 0.0 **** 0.06
28664 H 102.80435744102024 276.54442650409305 157.36491126429468 H 0.0 **** 0.06
28665 H 102.01393260466602 277.7374728931877 158.42192221273814 H 0.0 **** 0.06
28666 C 304.58123761770133 151.53318019698173 57.627834829702294 C 0.0 **** -0.24
28667 H 304.2829142884603 152.44781064758314 58.139926304506815 H 0.0 **** 0.06
28668 H 303.8082515275257 150.7754575871666 57.75915240080991 H 0.0 **** 0.06
28669 H 305.5197799442416 151.17116395784262 58.04756914304454 H 0.0 **** 0.06
28670 H 304.7122820953498 151.73820471980986 56.566114700642686 H 0.0 **** 0.06
28671 C 210.2621729564844 289.8369594077775 171.60993409219634 C 0.0 **** -0.24
28672 H 210.33234260590186 289.4257996851883 172.6173015801309 H 0.0 **** 0.06
28673 H 210.6621305488503 290.85078671889687 171.6036526633601 H 0.0 **** 0.06
28674 H 209.21840195086526 289.8541509151299 171.29692788115295 H 0.0 **** 0.06
28675 H 210.83738707197801 289.2154759454813 170.92428230488144 H 0.0 **** 0.06
28676 C 100.0781929681151 274.43043838840106 225.56450719189195 C 0.0 **** -0.24
28677 H 99.88310149712422 275.0834066199751 224.71439475696593 H 0.0 **** 0.06
28678 H 100.34821263154441 273.43717918883533 225.20467542896336 H 0.0 **** 0.06
28679 H 99.18308982387938 274.36218768266633 226.18306564021978 H 0.0 **** 0.06
28680 H 100.89834644534233 274.83817518591235 226.15473030556547 H 0.0 **** 0.06
28681 C 232.56870269268052 117.31535866288328 50.49541965914949 C 0.0 **** -0.24
28682 H 231.76583169794284 117.10091676757293 51.200461634740094 H 0.0 **** 0.06
28683 H 232.76119967587238 116.43225869364554 49.8844869991961 H 0.0 **** 0.06
28684 H 233.4726527068284 117.58081387017171 51.04380570543768 H 0.0 **** 0.06
28685 H 232.276388472422 118.14561311475433 49.85315002105162 H 0.0 **** 0.06
28686 C 211.9443867276798 107.7563721051431 284.46465224323157 C 0.0 **** -0.24
28687 H 212.68605061601627 108.01497093059172 283.70903416957776 H 0.0 **** 0.06
28688 H 211.02222029307399 107.44150315425037 283.97509737856166 H 0.0 **** 0.06
28689 H 211.74523924853293 108.6259572745108 285.0905014759611 H 0.0 **** 0.06
28690 H 212.32370876700793 106.94173774693434 285.0825090292797 H 0.0 **** 0.06
28691 C 73.15211060956469 95.9928475226761 173.54299498744678 C 0.0 **** -0.24
28692 H 72.4768820502197 96.26393395454 172.73140217756338 H 0.0 **** 0.06
28693 H 73.00873774742809 96.67720642983585 174.3792464203674 H 0.0 **** 0.06
28694 H 74.18351532450524 96.05545715881934 173.19418027561852 H 0.0 **** 0.06
28695 H 72.93964082180898 94.97384990778284 173.86713662649953 H 0.0 **** 0.06
28696 C 13.307903680151185 223.22477260634665 118.57144653129126 C 0.0 **** -0.24
28697 H 13.242400394076185 222.18651626450236 118.89564467253001 H 0.0 **** 0.06
28698 H 13.80972830579259 223.27164942276426 117.60460426788589 H 0.0 **** 0.06
28699 H 13.87423385608463 223.79944190914586 119.30323589096355 H 0.0 **** 0.06
28700 H 12.304631330150073 223.64036535588752 118.4811326056614 H 0.0 **** 0.06
28701 C 198.80674636872266 132.34321314090175 257.9198247168685 C 0.0 **** -0.24
28702 H 199.0959750717155 131.96379399904382 256.94005575448364 H 0.0 **** 0.06
28703 H 199.6275287434966 132.92531501986448 258.33988191492125 H 0.0 **** 0.06
28704 H 198.57793401334771 131.5074149242445 258.58003497966195 H 0.0 **** 0.06
28705 H 197.92648843708315 132.97716048601066 257.81722313983647 H 0.0 **** 0.06
28706 C 145.88550521003165 50.698841402273786 100.0890800793195 C 0.0 **** -0.24
28707 H 145.04515887273143 51.1415371705927 100.62306213559026 H 0.0 **** 0.06
28708 H 146.09416181020597 49.71003558253378 100.49581318309473 H 0.0 **** 0.06
28709 H 146.7648158182922 51.33416807984881 100.20623052929975 H 0.0 **** 0.06
28710 H 145.63870778512177 50.612609496147314 99.03057148585413 H 0.0 **** 0.06
28711 C 37.09066336446628 159.81311102700676 61.870678557530624 C 0.0 **** -0.24
28712 H 37.32607222709922 160.8715836563818 61.983256138728535 H 0.0 **** 0.06
28713 H 36.00908350657292 159.67637202103555 61.902800383129176 H 0.0 **** 0.06
28714 H 37.552503121899036 159.250853625072 62.68194238638384 H 0.0 **** 0.06
28715 H 37.474182440324256 159.4556211033572 60.91534384111051 H 0.0 **** 0.06
28716 C 214.27898470264404 255.93837992161295 165.69430361946098 C 0.0 **** -0.24
28717 H 215.11560377058964 256.39688114582395 166.21956688990218 H 0.0 **** 0.06
28718 H 214.53907899631503 255.80470263530813 164.6438105467787 H 0.0 **** 0.06
28719 H 213.4033196719098 256.58307213639677 165.7725407848638 H 0.0 **** 0.06
28720 H 214.05698977092516 254.968763039042 166.14098998052458 H 0.0 **** 0.06
28721 C 283.98943463418505 111.48176066883968 256.4258159484961 C 0.0 **** -0.24
28722 H 283.5258333784728 111.07714408052914 255.52628293590172 H 0.0 **** 0.06
28723 H 283.2665552382929 111.47431064173674 257.2424218706668 H 0.0 **** 0.06
28724 H 284.31432092657883 112.50547825562109 256.2371613589959 H 0.0 **** 0.06
28725 H 284.85079912853695 110.87200111349335 256.6958582341894 H 0.0 **** 0.06
28726 C 22.08972339196299 201.94756792180596 293.9142041599508 C 0.0 **** -0.24
28727 H 22.05489840494741 201.09145225832486 293.23935265956163 H 0.0 **** 0.06
28728 H 21.79225988122272 202.84679253587473 293.37404038236843 H 0.0 **** 0.06
28729 H 23.104181472711247 202.068925475014 294.2931322450005 H 0.0 **** 0.06
28730 H 21.407597778498854 201.78097614572232 294.7477455064682 H 0.0 **** 0.06
28731 C 195.49446106346977 287.5935554476773 61.75085384106262 C 0.0 **** -0.24
28732 H 195.77993908534216 287.8370960416921 62.7749151841374 H 0.0 **** 0.06
28733 H 195.42293083662975 286.5114617220454 61.641753223124965 H 0.0 **** 0.06
28734 H 196.24764938405042 287.9793751623035 61.06271805606593 H 0.0 **** 0.06
28735 H 194.52998137507973 288.0474145192644 61.526191388998 H 0.0 **** 0.06
28736 C 258.46370595839403 237.28150476799775 157.44713465541008 C 0.0 **** -0.24
28737 H 259.4351736603281 237.72240889233535 157.66891924397214 H 0.0 **** 0.06
28738 H 258.55310279218526 236.62322175137746 156.58255150188148 H 0.0 **** 0.06
28739 H 257.7472969568592 238.07316818219212 157.228583678649 H 0.0 **** 0.06
28740 H 258.119871899149 236.70789992631495 158.30809457144346 H 0.0 **** 0.06
28741 C 111.71170042714735 67.61473282482919 149.6769602591374 C 0.0 **** -0.24
28742 H 112.66902647928052 67.33216638895081 149.2408680877818 H 0.0 **** 0.06
28743 H 111.46105731213041 66.92226782420298 150.48112044579193 H 0.0 **** 0.06
28744 H 110.93804591587423 67.57809041955099 148.91008127210932 H 0.0 **** 0.06
28745 H 111.7788778683094 68.62687593572335 150.0766299565388 H 0.0 **** 0.06
28746 C 189.43416212458504 205.00125850140108 51.46968204460745 C 0.0 **** -0.24
28747 H 190.19145352259358 204.77903034813204 52.221441138968885 H 0.0 **** 0.06
28748 H 188.4783457848743 205.18463695050326 51.95957776317559 H 0.0 **** 0.06
28749 H 189.33847184428106 204.15453901511586 50.789582173926135 H 0.0 **** 0.06
28750 H 189.730179684856 205.88718063681785 50.906506289708545 H 0.0 **** 0.06
28751 C 242.45039299928473 135.93329959352076 136.92990727272579 C 0.0 **** -0.24
28752 H 242.37259984848458 135.76549966174224 138.0033162120066 H 0.0 **** 0.06
28753 H 243.12416899070595 136.76885078883603 136.7401825685071 H 0.0 **** 0.06
28754 H 241.4639225555161 136.16194016760176 136.52577746167134 H 0.0 **** 0.06
28755 H 242.83955438176895 135.0355889356957 136.44912733881296 H 0.0 **** 0.06
28756 C 68.16091841307846 182.46986886677632 188.68054700203845 C 0.0 **** -0.24
28757 H 68.47579404288103 181.94931451253518 189.58541763126362 H 0.0 **** 0.06
28758 H 67.46420216313436 183.26570619205353 188.94390373503182 H 0.0 **** 0.06
28759 H 67.67229806354754 181.76484711134037 188.00807928686612 H 0.0 **** 0.06
28760 H 69.03282084635927 182.89817740587074 188.18675626765048 H 0.0 **** 0.06
28761 C 199.25611842181218 233.85407006727974 294.823754309197 C 0.0 **** -0.24
28762 H 200.28263281096451 233.49708872745856 294.91598710651834 H 0.0 **** 0.06
28763 H 198.5965449833762 233.2140784323184 295.4091293451983 H 0.0 **** 0.06
28764 H 198.9546907586734 233.82794400267454 293.77650785142214 H 0.0 **** 0.06
28765 H 199.19361122749922 234.87790032624278 295.19458824563685 H 0.0 **** 0.06
28766 C 226.9102097898215 272.0640580387179 7.061257502535966 C 0.0 **** -0.24
28767 H 227.71069789866846 272.2036789075163 6.334513288924683 H 0.0 **** 0.06
28768 H 226.73422249230737 270.9980913174873 7.208062725408084 H 0.0 **** 0.06
28769 H 225.9994414443152 272.53576988823056 6.693094088640876 H 0.0 **** 0.06
28770 H 227.1977820149725 272.5191753573124 8.009106537050883 H 0.0 **** 0.06
28771 C 135.3451448111445 124.63261398616717 206.96798002716906 C 0.0 **** -0.24
28772 H 134.89867229741012 125.0830814646591 207.85453329451445 H 0.0 **** 0.06
28773 H 136.36059405693564 124.30841404822971 207.19857184254198 H 0.0 **** 0.06
28774 H 135.371499941589 125.36543861528904 206.16145363548475 H 0.0 **** 0.06
28775 H 134.75022984326898 123.77306477016637 206.65951013348337 H 0.0 **** 0.06
28776 C 171.08495992222322 70.9779295294517 145.69370454251023 C 0.0 **** -0.24
28777 H 171.17160476202412 71.45980395635334 144.7194540296279 H 0.0 **** 0.06
28778 H 171.8988652178062 70.26250604821527 145.81695537774908 H 0.0 **** 0.06
28779 H 170.12988305120325 70.45737599932463 145.75759146390146 H 0.0 **** 0.06
28780 H 171.14149020624467 71.73212634352106 146.4778211390224 H 0.0 **** 0.06
28781 C 60.90578932241732 143.1450479377079 123.77136914841597 C 0.0 **** -0.24
28782 H 60.20461296591532 143.28557988017155 122.9478566428757 H 0.0 **** 0.06
28783 H 61.22822045651773 142.10458765798148 123.79966961650354 H 0.0 **** 0.06
28784 H 60.417360125856874 143.40173383990742 124.71052228294838 H 0.0 **** 0.06
28785 H 61.77181153550936 143.79039369889463 123.6233971035673 H 0.0 **** 0.06
28786 C 280.61661805989644 79.70940847597097 311.0624677487196 C 0.0 **** -0.24
28787 H 281.6795978284911 79.9384818125103 310.98887585583543 H 0.0 **** 0.06
28788 H 280.3764756464896 79.42878368820448 312.0885943029773 H 0.0 **** 0.06
28789 H 280.3754438784817 78.88398776924987 310.3935439743947 H 0.0 **** 0.06
28790 H 280.0362447426016 80.58744064747356 310.7806492535219 H 0.0 **** 0.06
28791 C 152.80151550610464 31.17701720526827 311.0127422887731 C 0.0 **** -0.24
28792 H 153.83066539814564 31.488308432311783 310.8328127940323 H 0.0 **** 0.06
28793 H 152.7967011251145 30.202963169002885 311.5014036273545 H 0.0 **** 0.06
28794 H 152.2707301781951 31.10943371855467 310.06219204507545 H 0.0 **** 0.06
28795 H 152.30753638816662 31.908044552856722 311.6527297867764 H 0.0 **** 0.06
28796 C 181.94648666185327 220.93128585569372 293.64715354157084 C 0.0 **** -0.24
28797 H 181.19936018610122 221.24398227762032 294.376269667141 H 0.0 **** 0.06
28798 H 182.80166932795686 220.50020543098728 294.1666279106247 H 0.0 **** 0.06
28799 H 182.270357256049 221.7954718127351 293.06690805806977 H 0.0 **** 0.06
28800 H 181.5126518997693 220.1870199752483 292.978819754037 H 0.0 **** 0.06
28801 C 57.052688633161125 152.74021573622838 207.64535867155618 C 0.0 **** -0.24
28802 H 57.17246038709902 153.82336429892945 207.6325811016224 H 0.0 **** 0.06
28803 H 57.54212713531115 152.30988958508766 206.77011715160404 H 0.0 **** 0.06
28804 H 55.991688951616936 152.49162574884252 207.62783603980503 H 0.0 **** 0.06
28805 H 57.50547329223451 152.334795032729 208.55012740172995 H 0.0 **** 0.06
28806 C 28.3227643896588 40.464613974288994 81.30980197010228 C 0.0 **** -0.24
28807 H 27.364199783840775 40.88219322045427 81.00091231024294 H 0.0 **** 0.06
28808 H 28.715193526794707 39.82873351314609 80.5153066787372 H 0.0 **** 0.06
28809 H 28.187754652705706 39.87382511570087 82.21519704434897 H 0.0 **** 0.06
28810 H 29.024166686276715 41.275561438315776 81.50621576588912 H 0.0 **** 0.06
28811 C 89.18184930286901 258.74719029212156 120.78913698707768 C 0.0 **** -0.24
28812 H 88.96734480293267 257.8096559859034 121.30149290961671 H 0.0 **** 0.06
28813 H 90.23962077913549 258.78550835808943 120.52857877788952 H 0.0 **** 0.06
28814 H 88.9383871628066 259.58314232699286 121.44490808418038 H 0.0 **** 0.06
28815 H 88.58016996893755 258.8108980010377 119.88210630405595 H 0.0 **** 0.06
28816 C 290.1255741816301 230.06282348359028 235.39099336942184 C 0.0 **** -0.24
28817 H 290.37048906101785 229.55360105863573 236.32270554088825 H 0.0 **** 0.06
28818 H 290.81783288121943 230.89060342737514 235.23716031878175 H 0.0 **** 0.06
28819 H 289.1062477810843 230.4459871566466 235.44314354491132 H 0.0 **** 0.06
28820 H 290.20772700319867 229.36110229170362 234.5609640731061 H 0.0 **** 0.06
28821 C 237.78062326687427 300.12545331707634 299.3824065136232 C 0.0 **** -0.24
28822 H 237.07251047871196 299.9132489446449 300.1827895024743 H 0.0 **** 0.06
28823 H 237.67798030497715 299.3753355455689 298.598736878001 H 0.0 **** 0.06
28824 H 238.79588092865296 300.09961909294793 299.77942896542777 H 0.0 **** 0.06
28825 H 237.5772875013889 301.11393366429667 298.96940224770384 H 0.0 **** 0.06
28826 C 306.1014535968728 258.1344974336331 268.8660336356047 C 0.0 **** -0.24
28827 H 306.2967097243258 258.9080331219816 268.1220074651729 H 0.0 **** 0.06
28828 H 306.6466525386851 258.3660948901185 269.78094515111684 H 0.0 **** 0.06
28829 H 306.430570223455 257.1692380465417 268.4807961591676 H 0.0 **** 0.06
28830 H 305.0333950800127 258.0967325013333 269.07888137833834 H 0.0 **** 0.06
28831 C 252.51216447708615 184.99415997230824 76.83582332093806 C 0.0 **** -0.24
28832 H 252.90846444892918 185.40319084920765 75.90633721296749 H 0.0 **** 0.06
28833 H 251.56807851519528 184.4862423196376 76.63580154726645 H 0.0 **** 0.06
28834 H 252.3461101097389 185.803563150466 77.54760193663986 H 0.0 **** 0.06
28835 H 253.2256362736329 184.28457284540497 77.25357737558886 H 0.0 **** 0.06
28836 C 153.0222818133861 60.79563402002222 19.03628911226535 C 0.0 **** -0.24
28837 H 153.29391937192872 60.60318139558174 20.073744831676933 H 0.0 **** 0.06
28838 H 152.70615794878626 61.833535850950454 18.929406729428976 H 0.0 **** 0.06
28839 H 152.20494650136544 60.135156150664926 18.745752841977847 H 0.0 **** 0.06
28840 H 153.88424653413762 60.61062394307925 18.394526347753583 H 0.0 **** 0.06
28841 C 96.96611269471717 178.34799452841224 83.7245173985886 C 0.0 **** -0.24
28842 H 97.4018609477186 177.38210898988268 83.47043093079682 H 0.0 **** 0.06
28843 H 95.91302115294329 178.35740786077326 83.44057382845924 H 0.0 **** 0.06
28844 H 97.49391767287878 179.1364216837917 83.18799724482889 H 0.0 **** 0.06
28845 H 97.05514184668274 178.51638075022004 84.79691715256416 H 0.0 **** 0.06
28846 C 107.5041213330982 98.73913061013826 139.60053669284034 C 0.0 **** -0.24
28847 H 107.14250984740949 98.36502624186517 140.55886722535763 H 0.0 **** 0.06
28848 H 108.34794168900243 98.13425382609091 139.26989847802463 H 0.0 **** 0.06
28849 H 107.82118371313862 99.77643314452087 139.71281426807704 H 0.0 **** 0.06
28850 H 106.70339224285564 98.6817044533525 138.86322637116595 H 0.0 **** 0.06
28851 C 258.8132701637395 185.15038553888337 263.8992569866396 C 0.0 **** -0.24
28852 H 257.8594646548127 184.94325516123274 264.38336792725477 H 0.0 **** 0.06
28853 H 259.60987230643116 185.13071356626642 264.6429688861979 H 0.0 **** 0.06
28854 H 258.7769434386791 186.133911891472 263.43052717761094 H 0.0 **** 0.06
28855 H 259.00654282747547 184.39345709118874 263.1387884766159 H 0.0 **** 0.06
28856 C 57.90282215193034 53.6097777639865 25.60144839837409 C 0.0 **** -0.24
28857 H 58.198368977578326 53.572199447043516 24.552463032167736 H 0.0 **** 0.06
28858 H 57.96284122096793 54.63742910986733 25.959311180665736 H 0.0 **** 0.06
28859 H 58.569985757434836 52.97941000141745 26.189581511330772 H 0.0 **** 0.06
28860 H 56.878846779216786 53.24897141121494 25.702639137165733 H 0.0 **** 0.06
28861 C 164.8907240300838 96.0723803342419 57.27526413167618 C 0.0 **** -0.24
28862 H 165.4470257069583 96.72043281464542 56.59741475269365 H 0.0 **** 0.06
28863 H 165.57799199052505 95.37793601290241 57.75959995511329 H 0.0 **** 0.06
28864 H 164.14495321347636 95.51215896807665 56.712235486694 H 0.0 **** 0.06
28865 H 164.3944320282912 96.68091691876899 58.0319799497467 H 0.0 **** 0.06
28866 C 286.5239682436134 267.1247184009732 61.08230740465157 C 0.0 **** -0.24
28867 H 286.38633445115255 268.0908622503846 61.568285133956294 H 0.0 **** 0.06
28868 H 286.5004151372733 267.25550494578994 60.00024526101521 H 0.0 **** 0.06
28869 H 285.7241189458059 266.44851619448815 61.385054872375406 H 0.0 **** 0.06
28870 H 287.4860210772164 266.70390033790545 61.376623320438114 H 0.0 **** 0.06
28871 C 270.43338120818413 268.1972388769626 49.315736293983434 C 0.0 **** -0.24
28872 H 271.3613555431788 267.9038411080002 49.80832713904056 H 0.0 **** 0.06
28873 H 270.27577747231123 267.57304801301495 48.43639439465693 H 0.0 **** 0.06
28874 H 270.4981405259159 269.24284587230096 49.01302257344079 H 0.0 **** 0.06
28875 H 269.60086163072407 268.0708331579857 50.007342463759414 H 0.0 **** 0.06
28876 C 150.13535803408018 311.7322769253272 226.92754119346554 C 0.0 **** -0.24
28877 H 149.24393927770512 311.3397504668112 226.4394480416475 H 0.0 **** 0.06
28878 H 150.84364619050234 310.9217102468622 227.0967123896089 H 0.0 **** 0.06
28879 H 149.85916661448948 312.17872407074856 227.88307329572285 H 0.0 **** 0.06
28880 H 150.59342705088864 312.4898039171476 226.2925601095585 H 0.0 **** 0.06
28881 C 261.2736949267934 61.93580759977337 239.31053815369833 C 0.0 **** -0.24
28882 H 261.11069776968776 61.597630000693925 238.28802253971065 H 0.0 **** 0.06
28883 H 262.22308695436914 61.54341755845985 239.67656983096435 H 0.0 **** 0.06
28884 H 260.46327114858013 61.576926046618894 239.94594092826992 H 0.0 **** 0.06
28885 H 261.29697153449246 63.0249772545626 239.33345123307873 H 0.0 **** 0.06
28886 C 221.17556862753682 198.59195137739414 194.76607716416402 C 0.0 **** -0.24
28887 H 220.32323420868084 198.85286177701107 194.1373545229523 H 0.0 **** 0.06
28888 H 221.00770840489676 197.61389354578154 195.21682340420932 H 0.0 **** 0.06
28889 H 221.2901359485208 199.33933749511624 195.55061694387012 H 0.0 **** 0.06
28890 H 222.07939600450567 198.56225171079365 194.15739961967853 H 0.0 **** 0.06
28891 C 152.02558039692582 294.36112844650324 207.33673678520063 C 0.0 **** -0.24
28892 H 152.287179490173 295.02910701995233 206.51582942645706 H 0.0 **** 0.06
28893 H 151.0614757503668 294.6559399718908 207.7518063547773 H 0.0 **** 0.06
28894 H 152.78899263479252 294.42299469376667 208.11222996510222 H 0.0 **** 0.06
28895 H 151.96515040508996 293.337472698611 206.9679597886166 H 0.0 **** 0.06
28896 C 188.50894706761056 185.88089144497167 32.282481391948295 C 0.0 **** -0.24
28897 H 189.5899589960145 185.75189160264824 32.22763978485338 H 0.0 **** 0.06
28898 H 188.17036404190424 186.47255474867785 31.43126671576414 H 0.0 **** 0.06
28899 H 188.25166445039292 186.3940920628146 33.208355100858284 H 0.0 **** 0.06
28900 H 188.0263954235549 184.90351997616756 32.261666139895425 H 0.0 **** 0.06
28901 C 171.59382172352542 20.478006677117875 141.69146834470456 C 0.0 **** -0.24
28902 H 170.57814489477755 20.655720297654085 141.33554306252307 H 0.0 **** 0.06
28903 H 171.5566698854314 20.04174048376599 142.68959804510203 H 0.0 **** 0.06
28904 H 172.13649795411317 21.42236377606602 141.726732007038 H 0.0 **** 0.06
28905 H 172.09996639263443 19.79134073079649 141.0135577324391 H 0.0 **** 0.06
28906 C 49.44503569492082 117.87326880872948 167.58729576815887 C 0.0 **** -0.24
28907 H 49.33028865082582 118.9570324968762 167.57859331768947 H 0.0 **** 0.06
28908 H 50.29637298698191 117.59321856435304 166.96586835369743 H 0.0 **** 0.06
28909 H 48.54084010875954 117.40843166284208 167.19544488376016 H 0.0 **** 0.06
28910 H 49.61349418800313 117.53406720365336 168.60968432439324 H 0.0 **** 0.06
28911 C 90.80009365997952 160.84056752518995 40.81434731104753 C 0.0 **** -0.24
28912 H 90.29979689644946 160.05731091306342 41.382815052158094 H 0.0 **** 0.06
28913 H 90.11467502817166 161.24118265968053 40.06629773308802 H 0.0 **** 0.06
28914 H 91.67724170234519 160.42629206326882 40.317908492569245 H 0.0 **** 0.06
28915 H 91.10794180618316 161.63892780595978 41.4897358894201 H 0.0 **** 0.06
28916 C 217.78986619093052 168.2327145461898 276.6246335363027 C 0.0 **** -0.24
28917 H 218.82997379718603 168.33649588769669 276.31403257872086 H 0.0 **** 0.06
28918 H 217.13728781324744 168.3969736332458 275.76689012168686 H 0.0 **** 0.06
28919 H 217.566199133127 168.9681644096063 277.39780227487245 H 0.0 **** 0.06
28920 H 217.6271650909298 167.22965981910392 277.0191293119302 H 0.0 **** 0.06
28921 C 170.36545539784368 131.0828616858133 158.81060631630703 C 0.0 **** -0.24
28922 H 170.9877983743679 130.75551877531626 157.97837667022839 H 0.0 **** 0.06
28923 H 169.378492285907 131.3603963261059 158.43881377377954 H 0.0 **** 0.06
28924 H 170.82805297997737 131.94389243765383 159.29217029710452 H 0.0 **** 0.06
28925 H 170.26747001784645 130.27131326464766 159.53168840293932 H 0.0 **** 0.06
28926 C 209.3539029927369 29.239798010321238 233.25503116649338 C 0.0 **** -0.24
28927 H 210.10598365332214 28.50676333358129 232.96120094679102 H 0.0 **** 0.06
28928 H 209.76622960535374 29.89621873949224 234.02215954334415 H 0.0 **** 0.06
28929 H 208.47929648069092 28.722161699006733 233.65059463026896 H 0.0 **** 0.06
28930 H 209.0637919389439 29.830443955459202 232.38712490097168 H 0.0 **** 0.06
28931 C 0.48150360592023844 297.1509163222895 91.57145540900774 C 0.0 **** -0.24
28932 H 1.1840306678301005 297.94562296328166 91.82164619654623 H 0.0 **** 0.06
28933 H 0.6771767701628306 296.7988948499899 90.55837384874064 H 0.0 **** 0.06
28934 H -0.537073041129446 297.5335105620154 91.63278737184356 H 0.0 **** 0.06
28935 H 0.6026607030586604 296.3255052957418 92.272403296829 H 0.0 **** 0.06
28936 C 208.06298363832997 179.86466967364515 228.46522103926026 C 0.0 **** -0.24
28937 H 207.78519536985183 180.87877427345472 228.75382438629964 H 0.0 **** 0.06
28938 H 207.38648533212324 179.15320478346507 228.94039480592465 H 0.0 **** 0.06
28939 H 209.08518881958298 179.66325279326531 228.78423538656455 H 0.0 **** 0.06
28940 H 207.99368207591777 179.76379092702365 227.38144517295572 H 0.0 **** 0.06
28941 C 48.954325125974094 141.77622870211266 269.9667913047117 C 0.0 **** -0.24
28942 H 50.02065233345533 141.56863640817326 269.8901553689354 H 0.0 **** 0.06
28943 H 48.67800558381683 142.53548842683995 269.23515373661166 H 0.0 **** 0.06
28944 H 48.72606552922056 142.13672590877513 270.96984447915077 H 0.0 **** 0.06
28945 H 48.391362059274485 140.86248020616895 269.7730192026746 H 0.0 **** 0.06
28946 C 289.8749501157747 41.86813788668687 103.44576726226762 C 0.0 **** -0.24
28947 H 289.69439603579093 40.81121811383261 103.24972857239271 H 0.0 **** 0.06
28948 H 288.9695254980867 42.43628327680574 103.22908446701075 H 0.0 **** 0.06
28949 H 290.6861367266664 42.22180754918665 102.8104756790008 H 0.0 **** 0.06
28950 H 290.1472896923918 42.002735790572274 104.49184943032787 H 0.0 **** 0.06
28951 C 264.4621432873638 62.727027139858876 65.70491985739184 C 0.0 **** -0.24
28952 H 263.3785765206959 62.68793919727051 65.58865055948507 H 0.0 **** 0.06
28953 H 264.9277527219247 62.03469079349861 65.003074012045 H 0.0 **** 0.06
28954 H 264.7289221697079 62.44631466484023 66.72354239877484 H 0.0 **** 0.06
28955 H 264.81149462900606 63.73922391438617 65.5027820906949 H 0.0 **** 0.06
28956 C 156.83556874572906 170.68191708548835 151.28174572520044 C 0.0 **** -0.24
28957 H 156.84710449843067 170.00686652665388 152.13689542840285 H 0.0 **** 0.06
28958 H 155.87575671308588 171.1979007368376 151.23947175316744 H 0.0 **** 0.06
28959 H 156.98077576990482 170.1087842987979 150.36551263086506 H 0.0 **** 0.06
28960 H 157.63821766656383 171.41224465426023 151.3839548342429 H 0.0 **** 0.06
28961 C 156.91509365931626 231.86880492611763 39.51118215399481 C 0.0 **** -0.24
28962 H 157.50381939483879 232.57061407151878 40.10233381298042 H 0.0 **** 0.06
28963 H 157.57187907689922 231.10720286684568 39.09073171830829 H 0.0 **** 0.06
28964 H 156.4157373840725 232.40382174675975 38.70353392548583 H 0.0 **** 0.06
28965 H 156.16819774863177 231.39417473722784 40.147815513009846 H 0.0 **** 0.06
28966 C 64.07978677734792 308.86990706320444 157.78043934162116 C 0.0 **** -0.24
28967 H 64.31518287889264 308.1782180634429 158.58912862167324 H 0.0 **** 0.06
28968 H 64.28650448763165 308.39267051073364 156.82189491565578 H 0.0 **** 0.06
28969 H 64.69198690687335 309.7668689983996 157.87973507695557 H 0.0 **** 0.06
28970 H 63.025404483630155 309.1430754360783 157.83173624818926 H 0.0 **** 0.06
28971 C 112.33541077182366 123.60030917548355 127.49746343523489 C 0.0 **** -0.24
28972 H 112.34480232573395 124.66132979522251 127.74899354820161 H 0.0 **** 0.06
28973 H 111.5849087722024 123.09092755371711 128.10137523251598 H 0.0 **** 0.06
28974 H 113.31634818663696 123.17100560120363 127.69798668370888 H 0.0 **** 0.06
28975 H 112.0956714245684 123.48009887027698 126.4402832782211 H 0.0 **** 0.06
28976 C 244.27781161684234 158.20387477467102 249.92097310794708 C 0.0 **** -0.24
28977 H 245.36429989088322 158.27115218332187 249.87621458280725 H 0.0 **** 0.06
28978 H 243.84219105689633 159.1535180024004 249.61103631491184 H 0.0 **** 0.06
28979 H 243.96917213267605 157.97799720905812 250.9416534418175 H 0.0 **** 0.06
28980 H 243.93564970980952 157.4118412982292 249.2551093456059 H 0.0 **** 0.06
28981 C 274.2313646630053 261.0062946767516 256.65605618714267 C 0.0 **** -0.24
28982 H 273.5450857792557 260.5249544891507 257.35240973605823 H 0.0 **** 0.06
28983 H 274.95305542584515 261.6048889718611 257.211792331507 H 0.0 **** 0.06
28984 H 273.6699679185259 261.6491805068973 255.97850851200002 H 0.0 **** 0.06
28985 H 274.75828784311136 260.24450831725665 256.08032720517724 H 0.0 **** 0.06
28986 C 163.63381959173546 67.40149122143572 185.13169054057693 C 0.0 **** -0.24
28987 H 163.1123675425822 67.47849566796347 186.0848455215127 H 0.0 **** 0.06
28988 H 164.3244035184734 68.23794301080906 185.0268640571735 H 0.0 **** 0.06
28989 H 162.90874243156168 67.42375977817719 184.31781918990532 H 0.0 **** 0.06
28990 H 164.1902183352484 66.4645309480629 185.0967157359512 H 0.0 **** 0.06
28991 C 285.9239051435895 277.99880150132185 192.66676542855885 C 0.0 **** -0.24
28992 H 285.61626038274915 277.59904091197984 191.70051674306256 H 0.0 **** 0.06
28993 H 285.83786933093444 277.22129032247756 193.42650522630737 H 0.0 **** 0.06
28994 H 285.283556449615 278.83935075143063 192.9326692729823 H 0.0 **** 0.06
28995 H 286.95889552907437 278.3356618024868 192.60760978858718 H 0.0 **** 0.06
28996 C 9.08487058962129 170.72081962266805 245.42796331340543 C 0.0 **** -0.24
28997 H 8.58161613495497 171.45701961643084 246.053841790369 H 0.0 **** 0.06
28998 H 8.952342504058151 169.7280913457788 245.8582983287811 H 0.0 **** 0.06
28999 H 10.147394251807782 170.95578869467994 245.3745372189859 H 0.0 **** 0.06
29000 H 8.657322655173928 170.7426331037505 244.42570921173717 H 0.0 **** 0.06
29001 C 222.53966469463958 165.889879154578 174.072465702498 C 0.0 **** -0.24
29002 H 223.21817553281824 166.5673401857299 173.55428046290422 H 0.0 **** 0.06
29003 H 221.64889512932078 165.73229692233326 173.46393651354242 H 0.0 **** 0.06
29004 H 222.25365018628997 166.3249415752453 175.03029436303973 H 0.0 **** 0.06
29005 H 223.0380338684904 164.93612831108754 174.24210897272707 H 0.0 **** 0.06
29006 C 18.839592379776022 81.21514607883003 57.259878607376805 C 0.0 **** -0.24
29007 H 17.80817576001735 81.03874040231798 56.956993914285874 H 0.0 **** 0.06
29008 H 19.513180349256757 80.85534172234776 56.481560917597875 H 0.0 **** 0.06
29009 H 19.041497904938126 80.68216511871773 58.189803234282806 H 0.0 **** 0.06
29010 H 18.996815049912456 82.28224104951488 57.41286455339838 H 0.0 **** 0.06
29011 C 219.83580805681925 137.89149241107157 245.97488437102203 C 0.0 **** -0.24
29012 H 220.71165309369303 137.56615147210823 246.5344923461243 H 0.0 **** 0.06
29013 H 219.29194935174985 138.63892387300817 246.55359524369695 H 0.0 **** 0.06
29014 H 219.18749840537532 137.03648786779627 245.78526060370797 H 0.0 **** 0.06
29015 H 220.15203692665335 138.32581280854748 245.02630414474794 H 0.0 **** 0.06
29016 C 252.2739815361384 46.56249607614268 132.96723182571867 C 0.0 **** -0.24
29017 H 252.143949838183 45.822504154529526 132.17778704507188 H 0.0 **** 0.06
29018 H 252.77230177184532 47.443812560396594 132.5618510751392 H 0.0 **** 0.06
29019 H 252.8798234739879 46.137397941645276 133.76744271809417 H 0.0 **** 0.06
29020 H 251.2981589155994 46.84635339727808 133.3633057980069 H 0.0 **** 0.06
29021 C 3.2442706913015513 278.1842715070495 247.0493931296838 C 0.0 **** -0.24
29022 H 2.6562764698597903 277.38686769805935 247.50396139896827 H 0.0 **** 0.06
29023 H 3.315050586114424 278.0168813194173 245.97430007096665 H 0.0 **** 0.06
29024 H 4.24453708383102 278.18953161792274 247.482464515475 H 0.0 **** 0.06
29025 H 2.7618388379170398 279.1433997144282 247.23751792441664 H 0.0 **** 0.06
29026 C 158.2198914548597 103.86383998500273 280.0419106491498 C 0.0 **** -0.24
29027 H 158.7194703935404 104.63282083872562 280.630883211508 H 0.0 **** 0.06
29028 H 157.70956923879464 103.1699961607257 280.7088824078671 H 0.0 **** 0.06
29029 H 158.95874334949355 103.32311489239805 279.4505887391325 H 0.0 **** 0.06
29030 H 157.49287816819964 104.33094322474824 279.376577950247 H 0.0 **** 0.06
29031 C 216.70924916159862 224.04342462210428 188.56841017221922 C 0.0 **** -0.24
29032 H 216.52399007919723 222.98637190665534 188.38211746875578 H 0.0 **** 0.06
29033 H 217.5247363479951 224.38785275655718 187.9312498581612 H 0.0 **** 0.06
29034 H 216.98004953431388 224.1854848021263 189.61448684814957 H 0.0 **** 0.06
29035 H 215.80810699127414 224.61492807438424 188.3461109531881 H 0.0 **** 0.06
29036 C 88.32114163528763 214.5973800060003 110.15118867800408 C 0.0 **** -0.24
29037 H 87.39673313453787 214.28502843026843 109.66610645440207 H 0.0 **** 0.06
29038 H 88.0904329547129 215.29334672673227 110.95791488908023 H 0.0 **** 0.06
29039 H 88.96603349448264 215.08785788104012 109.42177775421254 H 0.0 **** 0.06
29040 H 88.83049089325513 213.72475225845375 110.55866320773299 H 0.0 **** 0.06
29041 C 112.3904988573249 135.88255250543878 187.58483777234767 C 0.0 **** -0.24
29042 H 111.6508167588012 135.0815307151593 187.565194980142 H 0.0 **** 0.06
29043 H 113.11245877960485 135.72996749916132 186.78194111576886 H 0.0 **** 0.06
29044 H 112.90625746878214 135.87744192907016 188.54488739865548 H 0.0 **** 0.06
29045 H 111.89022755185198 136.8416732617632 187.44640962762708 H 0.0 **** 0.06
29046 C 121.9339275063341 138.49761731832868 160.44832596250717 C 0.0 **** -0.24
29047 H 121.52538956265042 139.46166932113138 160.75281050807968 H 0.0 **** 0.06
29048 H 122.55171711821367 138.63020910497607 159.55900443871968 H 0.0 **** 0.06
29049 H 121.11653857867677 137.81283133776435 160.2243084457254 H 0.0 **** 0.06
29050 H 122.54036237675763 138.08852311368514 161.25531916059117 H 0.0 **** 0.06
29051 C 218.7632114248672 6.893132115475282 265.3519693196372 C 0.0 **** -0.24
29052 H 218.31068626510762 5.947176741953953 265.05342491104807 H 0.0 **** 0.06
29053 H 218.1338801928692 7.376498421322665 266.0986824915092 H 0.0 **** 0.06
29054 H 218.85695890130472 7.540926497765383 264.480682227763 H 0.0 **** 0.06
29055 H 219.74989173221508 6.70549458652701 265.7736581526062 H 0.0 **** 0.06
29056 C 70.84738038026458 215.63983128219334 56.1612314319768 C 0.0 **** -0.24
29057 H 71.40298623331248 216.2511509019247 55.449519543416415 H 0.0 **** 0.06
29058 H 70.26696614751864 216.28666789273677 56.81890085220175 H 0.0 **** 0.06
29059 H 71.54541608953556 215.04945205866113 56.75604390469721 H 0.0 **** 0.06
29060 H 70.1762020971419 214.9728677911076 55.62152896116902 H 0.0 **** 0.06
29061 C 307.64116897491067 233.140222127471 193.41552788313498 C 0.0 **** -0.24
29062 H 306.795613493666 233.5946568478828 193.93198152422883 H 0.0 **** 0.06
29063 H 307.6370424726489 233.45087968261072 192.3706005140382 H 0.0 **** 0.06
29064 H 307.56176801076117 232.05495925962578 193.472223041316 H 0.0 **** 0.06
29065 H 308.5704343184259 233.46173362748027 193.88689571307003 H 0.0 **** 0.06
29066 C 177.49858498471332 90.66685171384518 67.41916393338056 C 0.0 **** -0.24
29067 H 178.09375190937828 90.63608903030195 66.50620974969027 H 0.0 **** 0.06
29068 H 178.13751951247826 90.44931907845313 68.27633111752641 H 0.0 **** 0.06
29069 H 176.7037589095795 89.92341114439881 67.35978397572143 H 0.0 **** 0.06
29070 H 177.06119806216293 91.65809084291655 67.53389847079589 H 0.0 **** 0.06
29071 C 180.62620563330927 116.12517031074597 144.9869107852408 C 0.0 **** -0.24
29072 H 180.59307048990985 115.03518601686417 144.95701663686287 H 0.0 **** 0.06
29073 H 179.87643267741015 116.52873325341437 144.3056517885998 H 0.0 **** 0.06
29074 H 181.61582465812262 116.46672992145665 144.68310563564918 H 0.0 **** 0.06
29075 H 180.41818367643106 116.46674756038956 146.0006470407351 H 0.0 **** 0.06
29076 C 134.9726940516988 177.97650741388367 51.57978018267002 C 0.0 **** -0.24
29077 H 134.54189398062982 177.0154988376985 51.861313780114216 H 0.0 **** 0.06
29078 H 135.35198876880784 177.91993790366672 50.55940683992421 H 0.0 **** 0.06
29079 H 135.7908140975526 178.22072663626022 52.25826814672686 H 0.0 **** 0.06
29080 H 134.20756012296192 178.74956460815633 51.64178010175735 H 0.0 **** 0.06
29081 C 2.267807872276407 250.12394097002738 133.80224526241653 C 0.0 **** -0.24
29082 H 3.18582475149303 250.05985622498963 133.2180856054077 H 0.0 **** 0.06
29083 H 2.281508758154615 249.3631666886874 134.58327223532984 H 0.0 **** 0.06
29084 H 1.410199353506826 249.95993943997283 133.14959951037056 H 0.0 **** 0.06
29085 H 2.194388849847684 251.11133851260732 134.25740467113593 H 0.0 **** 0.06
29086 C 308.81253424735894 252.69874484325595 104.54602636428888 C 0.0 **** -0.24
29087 H 309.3845875025337 251.82659047221438 104.86161973166799 H 0.0 **** 0.06
29088 H 307.8371827644163 252.68884434999862 105.03278073351271 H 0.0 **** 0.06
29089 H 308.67934266116146 252.67332470878284 103.46404107212206 H 0.0 **** 0.06
29090 H 309.3492717843891 253.60526913577476 104.82547738458504 H 0.0 **** 0.06
29091 C 7.9321120711486515 205.60855756163699 309.6767153772386 C 0.0 **** -0.24
29092 H 7.826222125713855 205.0132299724404 310.58364411266433 H 0.0 **** 0.06
29093 H 7.02160035368486 206.18597913644606 309.5131944546374 H 0.0 **** 0.06
29094 H 8.102055844734494 204.94864811730503 308.8262067133505 H 0.0 **** 0.06
29095 H 8.778367905319584 206.2870437068844 309.7859397573969 H 0.0 **** 0.06
29096 C 192.53521234234046 235.06979138605706 114.82291176131153 C 0.0 **** -0.24
29097 H 193.48114807669862 235.31756884351176 114.34229833680376 H 0.0 **** 0.06
29098 H 191.73696119359624 235.07966210580253 114.08060049009265 H 0.0 **** 0.06
29099 H 192.31988081494683 235.80416247069547 115.59922921851324 H 0.0 **** 0.06
29100 H 192.60354735157222 234.0773065246876 115.270075582949 H 0.0 **** 0.06
29101 C 260.5305695005354 6.745242650379993 184.54141587143818 C 0.0 **** -0.24
29102 H 260.8570405498329 7.746060818837819 184.25838230697303 H 0.0 **** 0.06
29103 H 260.02031231781353 6.7888714406247175 185.50343275510608 H 0.0 **** 0.06
29104 H 261.3973867799915 6.089257662585538 184.61827188930624 H 0.0 **** 0.06
29105 H 259.8486210564046 6.358969035795141 183.78383329206525 H 0.0 **** 0.06
29106 C 101.24828438554016 214.3301328855273 209.81356308840185 C 0.0 **** -0.24
29107 H 100.82679752693664 213.50135479698963 209.2441967207376 H 0.0 **** 0.06
29108 H 102.20531651677288 214.6206371109648 209.3780540148474 H 0.0 **** 0.06
29109 H 101.39838297771493 214.02057711705783 210.84762352506527 H 0.0 **** 0.06
29110 H 100.5625840242767 215.17699954762674 209.78411445977943 H 0.0 **** 0.06
29111 C 247.47108394286363 7.232503959980363 218.7473453013774 C 0.0 **** -0.24
29112 H 247.10926337179566 6.217620195388577 218.91383905803724 H 0.0 **** 0.06
29113 H 247.33744067378194 7.4977122425150355 217.6978700038295 H 0.0 **** 0.06
29114 H 248.52789174767045 7.288863238992292 219.00598644265202 H 0.0 **** 0.06
29115 H 246.9060157006261 7.925858746395761 219.37204393397326 H 0.0 **** 0.06
29116 C 248.5833116300359 183.50202429280608 125.7933681508336 C 0.0 **** -0.24
29117 H 249.47573945342108 184.1217522448511 125.7132108673359 H 0.0 **** 0.06
29118 H 248.33374010486258 183.35914240313934 126.84431827586019 H 0.0 **** 0.06
29119 H 248.7702438943069 182.53293475335136 125.32902436633904 H 0.0 **** 0.06
29120 H 247.75323021896511 183.99301708756695 125.28632744994042 H 0.0 **** 0.06
29121 C 269.4109054016845 307.89746170270706 286.3754176654416 C 0.0 **** -0.24
29122 H 269.77403965274976 308.40612225241864 287.2684016017199 H 0.0 **** 0.06
29123 H 270.2582400127141 307.5908119247365 285.7616413842159 H 0.0 **** 0.06
29124 H 268.77470005676184 308.5747224703844 285.8047750750527 H 0.0 **** 0.06
29125 H 268.8358031668113 307.0193114841916 286.6666546082107 H 0.0 **** 0.06
29126 C 69.91086896167414 127.36025602415526 144.59652153992394 C 0.0 **** -0.24
29127 H 69.67005488296039 127.49973399164674 143.5429002495205 H 0.0 **** 0.06
29128 H 68.99789609235475 127.42493444123383 145.18909186952536 H 0.0 **** 0.06
29129 H 70.60696185278306 128.13659800537738 144.91542304336835 H 0.0 **** 0.06
29130 H 70.36869519873798 126.38212711765308 144.7380641875082 H 0.0 **** 0.06
29131 C 106.21949237528759 225.4059995829565 13.122587053407528 C 0.0 **** -0.24
29132 H 106.3962133237601 226.02716985404032 12.244833358983087 H 0.0 **** 0.06
29133 H 105.44307727055667 225.86061410843138 13.73851040229846 H 0.0 **** 0.06
29134 H 107.13987467230791 225.32346554836903 13.70032307320362 H 0.0 **** 0.06
29135 H 105.89880423452556 224.4127488209853 12.806681379144976 H 0.0 **** 0.06
29136 C 183.03084907251377 295.3222237619524 173.01844876931608 C 0.0 **** -0.24
29137 H 184.0662849395411 295.37600972935576 173.35410779728403 H 0.0 **** 0.06
29138 H 182.8691137498431 296.0496220900444 172.22222096725335 H 0.0 **** 0.06
29139 H 182.3661913817179 295.544010139877 173.8531488979176 H 0.0 **** 0.06
29140 H 182.82191767355732 294.3208266751581 172.64360228089748 H 0.0 **** 0.06
29141 C 98.05133765342234 280.4575175205214 37.20502260615032 C 0.0 **** -0.24
29142 H 97.75684149090145 280.0938864488018 36.22048017198179 H 0.0 **** 0.06
29143 H 97.23622050599386 280.29727009164117 37.91036305244967 H 0.0 **** 0.06
29144 H 98.27607815718645 281.5224207151552 37.14585976621041 H 0.0 **** 0.06
29145 H 98.9359835450405 279.91681678219413 37.54097008220651 H 0.0 **** 0.06
29146 C 258.85616444850905 90.7232057283716 40.27030088373837 C 0.0 **** -0.24
29147 H 259.35620654703143 91.59605596182345 40.68938287699743 H 0.0 **** 0.06
29148 H 259.03678003064186 89.8591706062353 40.910598216159826 H 0.0 **** 0.06
29149 H 259.24902883470656 90.52385248475233 39.27260593313605 H 0.0 **** 0.06
29150 H 257.78480946175 90.91284213975996 40.207916015779546 H 0.0 **** 0.06
29151 C 50.535120948628105 212.8167128808355 158.40376832304912 C 0.0 **** -0.24
29152 H 50.86544706631787 211.80967510950063 158.6588270101911 H 0.0 **** 0.06
29153 H 51.40403699981209 213.46763604818 158.2989719331472 H 0.0 **** 0.06
29154 H 49.88800302404104 213.198750051095 159.19299854287686 H 0.0 **** 0.06
29155 H 49.98499626284308 212.79003755892705 157.46307782778274 H 0.0 **** 0.06
29156 C 221.25200940048063 279.34152473598965 231.38069317011536 C 0.0 **** -0.24
29157 H 221.08416712014403 278.4050994323121 230.85047721326004 H 0.0 **** 0.06
29158 H 221.84039581868493 279.149952714211 232.27920357229112 H 0.0 **** 0.06
29159 H 220.29322441709567 279.7777519707564 231.66065121070397 H 0.0 **** 0.06
29160 H 221.79157332490075 280.03401692191323 230.73437150468163 H 0.0 **** 0.06
29161 C 288.8814308939527 300.1866058921955 17.685439940736842 C 0.0 **** -0.24
29162 H 289.26529685232106 300.6247972237248 18.605997721115557 H 0.0 **** 0.06
29163 H 289.6118271987324 299.4800316977172 17.28816735594137 H 0.0 **** 0.06
29164 H 288.7032838997927 300.97413838527984 16.954397149283352 H 0.0 **** 0.06
29165 H 287.9472712205437 299.66522705320983 17.89365175501314 H 0.0 **** 0.06
29166 C 76.50318477522922 283.1965220265388 179.6974466068064 C 0.0 **** -0.24
29167 H 77.52414502483998 283.49016349522395 179.9399444486893 H 0.0 **** 0.06
29168 H 76.27719165037544 283.4866873794758 178.67082567849633 H 0.0 **** 0.06
29169 H 75.80996245510454 283.6926098751389 180.37640390239 H 0.0 **** 0.06
29170 H 76.40209410198665 282.11564017229034 179.80046819457158 H 0.0 **** 0.06
29171 C 33.49186980805405 52.551513389339505 77.04632698084617 C 0.0 **** -0.24
29172 H 34.58053310108136 52.57396140272763 77.09987764011797 H 0.0 **** 0.06
29173 H 33.17708401874745 51.73457654071541 76.39725114500027 H 0.0 **** 0.06
29174 H 33.129100431748384 53.49698253763273 76.64304566539414 H 0.0 **** 0.06
29175 H 33.08259548895069 52.401749132286824 78.04553143943428 H 0.0 **** 0.06
29176 C 8.001849417084372 278.95985625157954 51.26081923548014 C 0.0 **** -0.24
29177 H 7.09142342536785 278.97409300882543 50.661668855276986 H 0.0 **** 0.06
29178 H 7.764837098552505 279.23703695482635 52.28840785566592 H 0.0 **** 0.06
29179 H 8.71927684048029 279.66969269933463 50.848830812768256 H 0.0 **** 0.06
29180 H 8.430836723950222 277.95766587960213 51.24409495746556 H 0.0 **** 0.06
29181 C 74.41316491770692 43.33426445180277 123.93752487949894 C 0.0 **** -0.24
29182 H 75.18780244858141 44.06824619007253 124.15972716093705 H 0.0 **** 0.06
29183 H 74.52300274616536 42.99088378497976 122.90938446385425 H 0.0 **** 0.06
29184 H 73.43196160133152 43.79185181095832 124.06601306224746 H 0.0 **** 0.06
29185 H 74.51149920306253 42.48665176755736 124.61641990811677 H 0.0 **** 0.06
29186 C 79.62899442126482 275.4250120119485 29.338186602211493 C 0.0 **** -0.24
29187 H 80.56899308363029 275.87813115645696 29.024567562882112 H 0.0 **** 0.06
29188 H 78.79815382312185 275.93570979896845 28.849589602062366 H 0.0 **** 0.06
29189 H 79.52514885071079 275.51413638285476 30.41879397144382 H 0.0 **** 0.06
29190 H 79.62298674982708 274.37175348012806 29.05860527145279 H 0.0 **** 0.06
29191 C 270.111190188006 37.00051026974484 45.817439960662455 C 0.0 **** -0.24
29192 H 270.209946905302 38.07492599592405 45.97688999851414 H 0.0 **** 0.06
29193 H 269.42596658981745 36.58516688190477 46.55676319377943 H 0.0 **** 0.06
29194 H 271.08779994212216 36.52768502099934 45.91983146889396 H 0.0 **** 0.06
29195 H 269.7215801691613 36.8170361534807 44.816438647508505 H 0.0 **** 0.06
29196 C 81.29190197079743 172.2941333404289 125.94963890828694 C 0.0 **** -0.24
29197 H 81.69729269627186 173.00172122391723 125.22644661266145 H 0.0 **** 0.06
29198 H 80.49118567917483 172.77113427808905 126.51544265423638 H 0.0 **** 0.06
29199 H 82.0823104905893 171.9810136136063 126.63219642310276 H 0.0 **** 0.06
29200 H 80.89866269797605 171.42382892301896 125.42496430255272 H 0.0 **** 0.06
29201 C 12.342853461177242 230.2883043360571 49.76119214337797 C 0.0 **** -0.24
29202 H 12.296622650158497 230.88239642902965 48.84830022824997 H 0.0 **** 0.06
29203 H 11.725714512845286 229.3972539995548 49.645753127185515 H 0.0 **** 0.06
29204 H 11.974467489109315 230.8803397043024 50.59896612731853 H 0.0 **** 0.06
29205 H 13.374939766253192 229.9942493114756 49.95006206663686 H 0.0 **** 0.06
29206 C 203.10550788232518 90.81788053211827 21.733788885441328 C 0.0 **** -0.24
29207 H 202.71925900547166 89.84767061941758 21.424016593351297 H 0.0 **** 0.06
29208 H 203.00564710703742 91.52784593590818 20.911983369088716 H 0.0 **** 0.06
29209 H 204.1570061159809 90.72116315806477 22.004387415877886 H 0.0 **** 0.06
29210 H 202.5404222611552 91.1761148654571 22.594230488750014 H 0.0 **** 0.06
29211 C 35.1423874095878 134.70744354017756 174.0959321783198 C 0.0 **** -0.24
29212 H 35.356636481247904 134.3479077541193 175.1032269273743 H 0.0 **** 0.06
29213 H 34.516414585059124 133.98207914015006 173.57747306307533 H 0.0 **** 0.06
29214 H 36.07718377063287 134.83802049056072 173.55101129219474 H 0.0 **** 0.06
29215 H 34.619912333939226 135.66261663752044 174.15500419060146 H 0.0 **** 0.06
29216 C 289.9687299641247 222.1381549512201 38.80418464488656 C 0.0 **** -0.24
29217 H 290.7206489437338 221.35112596820613 38.759568817882894 H 0.0 **** 0.06
29218 H 289.790497394466 222.52740220237706 37.802039407833774 H 0.0 **** 0.06
29219 H 290.3228753784526 222.94285403280512 39.44931313462084 H 0.0 **** 0.06
29220 H 289.0408130820127 221.7311092196241 39.20680529196099 H 0.0 **** 0.06
29221 C 157.77133656748777 146.66578708892757 65.08995653325184 C 0.0 **** -0.24
29222 H 157.39448220806958 147.52549219548368 64.53494457283205 H 0.0 **** 0.06
29223 H 156.97251421691635 145.93449731679306 65.2117123119524 H 0.0 **** 0.06
29224 H 158.1197296024681 146.99099790968614 66.06951335076474 H 0.0 **** 0.06
29225 H 158.59820085815466 146.2140563204342 64.5411595659275 H 0.0 **** 0.06
29226 C 4.073197452500267 179.12490224871067 47.85723736170803 C 0.0 **** -0.24
29227 H 4.961243338036525 178.89196883840202 48.44539625579276 H 0.0 **** 0.06
29228 H 4.322232756422579 179.87564985198213 47.1069582099378 H 0.0 **** 0.06
29229 H 3.2932409245015606 179.51085382728178 48.51421190230448 H 0.0 **** 0.06
29230 H 3.718082397602643 178.22098991253108 47.36335262651858 H 0.0 **** 0.06
29231 C 109.26485412970212 300.29587363653224 213.15608916920277 C 0.0 **** -0.24
29232 H 109.56440918709956 299.6928986944404 214.013260876929 H 0.0 **** 0.06
29233 H 109.15414718049718 301.3353855824807 213.46560207359812 H 0.0 **** 0.06
29234 H 108.31447948549263 299.9290463296153 212.76884362588027 H 0.0 **** 0.06
29235 H 110.02548539262708 300.22662858550484 212.37888227810373 H 0.0 **** 0.06
29236 C 215.75121346398498 267.47526658921083 162.70569060193827 C 0.0 **** -0.24
29237 H 215.64178355540653 267.86981514455084 163.7157836084275 H 0.0 **** 0.06
29238 H 215.00045267632572 266.7040662407935 162.53461281185332 H 0.0 **** 0.06
29239 H 216.7464464398171 267.04668249619806 162.59049795459617 H 0.0 **** 0.06
29240 H 215.61631075475128 268.2806274651381 161.9843103524032 H 0.0 **** 0.06
29241 C 23.868490266888244 200.5167868292947 196.7723651374298 C 0.0 **** -0.24
29242 H 24.503780527523645 201.31033698512385 196.3784377499187 H 0.0 **** 0.06
29243 H 24.152387167501217 199.56572117742337 196.3213617810037 H 0.0 **** 0.06
29244 H 22.826877999884744 200.73453268947202 196.53620210957735 H 0.0 **** 0.06
29245 H 23.990761719488034 200.45701154247126 197.85433600662054 H 0.0 **** 0.06
29246 C 72.78422913037082 140.85155944386904 146.82506785235645 C 0.0 **** -0.24
29247 H 73.45957451760512 141.69718691125578 146.95258311140043 H 0.0 **** 0.06
29248 H 72.09282973073903 141.05819136900473 146.00834974548263 H 0.0 **** 0.06
29249 H 72.22264739346639 140.69320888892145 147.7453924698205 H 0.0 **** 0.06
29250 H 73.36265246396874 139.95658161563594 146.59443288756535 H 0.0 **** 0.06
29251 C 239.79706147527543 46.64696042420425 19.428560596464024 C 0.0 **** -0.24
29252 H 239.86272363927617 46.10643709774098 20.37320781474682 H 0.0 **** 0.06
29253 H 240.0066191714337 45.96590320215472 18.604760878967454 H 0.0 **** 0.06
29254 H 240.52563728038353 47.45881001469573 19.424700954810362 H 0.0 **** 0.06
29255 H 238.79477654494553 47.05862046604807 19.314888818166537 H 0.0 **** 0.06
29256 C 42.42019539377421 103.07493191766022 80.20498460601246 C 0.0 **** -0.24
29257 H 42.68296172174067 102.64097780363088 79.24001619427327 H 0.0 **** 0.06
29258 H 43.294578269317384 103.06735611878764 80.85641806237544 H 0.0 **** 0.06
29259 H 41.622119739968014 102.49013401439046 80.66066981110441 H 0.0 **** 0.06
29260 H 42.083291279497416 104.10170586761643 80.06178815287774 H 0.0 **** 0.06
29261 C 170.84522639805255 151.08056663672102 40.997203250950434 C 0.0 **** -0.24
29262 H 171.84543687845513 150.64839885397885 41.01670581482483 H 0.0 **** 0.06
29263 H 170.10992278395776 150.30441258829882 41.21070463434353 H 0.0 **** 0.06
29264 H 170.6526134197855 151.50375841953547 40.011978758816525 H 0.0 **** 0.06
29265 H 170.77466381383118 151.86564799039695 41.74943894250765 H 0.0 **** 0.06
29266 C 182.93573099891535 116.84881570776525 221.9670205209053 C 0.0 **** -0.24
29267 H 183.55384603137435 117.71415565130832 222.20907412003865 H 0.0 **** 0.06
29268 H 183.4257646589814 115.94232427167125 222.32417405113728 H 0.0 **** 0.06
29269 H 182.80124808552375 116.78930599068374 220.8878804554737 H 0.0 **** 0.06
29270 H 181.9630249276331 116.9510914734764 222.4496869929675 H 0.0 **** 0.06
29271 C 249.5930047004593 64.24883896668047 138.62644817181328 C 0.0 **** -0.24
29272 H 249.46121186204334 64.51595574992169 139.6754775454066 H 0.0 **** 0.06
29273 H 248.76739534695145 63.613596836204295 138.30650446048253 H 0.0 **** 0.06
29274 H 250.53377194889484 63.71286607397985 138.50469272781564 H 0.0 **** 0.06
29275 H 249.60993591036026 65.15479928888945 138.02122624950562 H 0.0 **** 0.06
29276 C 134.43163404751442 194.07999791701718 21.1285342024062 C 0.0 **** -0.24
29277 H 134.47205534632727 193.2587260062702 21.84370684930289 H 0.0 **** 0.06
29278 H 134.74143677295328 195.0032371250017 21.618525006002614 H 0.0 **** 0.06
29279 H 133.41254765900388 194.18910953968174 20.758328943454913 H 0.0 **** 0.06
29280 H 135.10106454416066 193.86815804332252 20.293889346816698 H 0.0 **** 0.06
29281 C 262.9433441611163 91.73453470204433 60.334503575508165 C 0.0 **** -0.24
29282 H 263.9531185169382 91.41202602936542 60.586214225686064 H 0.0 **** 0.06
29283 H 262.23654690193104 90.94160225189495 60.58493944953179 H 0.0 **** 0.06
29284 H 262.8854613026823 91.9498890074967 59.26787597193618 H 0.0 **** 0.06
29285 H 262.69690971812025 92.63285125333698 60.90001908038323 H 0.0 **** 0.06
29286 C 116.55319114944285 281.90095377934904 259.5331440310867 C 0.0 **** -0.24
29287 H 117.1755935009372 281.9313885608242 260.4273047468782 H 0.0 **** 0.06
29288 H 115.50231325747035 281.9064696494262 259.8210634252651 H 0.0 **** 0.06
29289 H 116.77159655358699 280.99364484975956 258.9702719905516 H 0.0 **** 0.06
29290 H 116.76615289974671 282.77181222898963 258.91331243879785 H 0.0 **** 0.06
29291 C 157.5633478660465 311.5575177750747 304.21045159320727 C 0.0 **** -0.24
29292 H 156.7813750741878 311.55516605245214 303.4516839290701 H 0.0 **** 0.06
29293 H 158.52946136414693 311.38242055439855 303.7373543294989 H 0.0 **** 0.06
29294 H 157.36617223888186 310.7700417921477 304.9375380366756 H 0.0 **** 0.06
29295 H 157.5756891377162 312.52362551744267 304.7155762071743 H 0.0 **** 0.06
29296 C 159.48430471944266 221.37162870172736 198.57609148818221 C 0.0 **** -0.24
29297 H 160.32403799556437 221.8880610256098 199.03951033010617 H 0.0 **** 0.06
29298 H 159.45717109656806 220.33772440625287 198.9225940591781 H 0.0 **** 0.06
29299 H 159.59964845787812 221.38814476608243 197.49222923097085 H 0.0 **** 0.06
29300 H 158.55476403707507 221.87073192451277 198.8501598072097 H 0.0 **** 0.06
29301 C 121.73093759449353 108.69763696988639 26.828735714793908 C 0.0 **** -0.24
29302 H 122.04417505227877 108.19059184208649 25.916180027308883 H 0.0 **** 0.06
29303 H 122.48517168684688 109.43181158195733 27.112906306620545 H 0.0 **** 0.06
29304 H 121.61448708156854 107.96648416423281 27.628610831333077 H 0.0 **** 0.06
29305 H 120.77971027306569 109.20206302769407 26.654838355712457 H 0.0 **** 0.06
29306 C 31.26019955945543 23.5602291234012 93.86504616565773 C 0.0 **** -0.24
29307 H 30.728292736833737 23.600520076650014 94.81536354371875 H 0.0 **** 0.06
29308 H 32.2409853859898 23.108506822000322 94.01558346109408 H 0.0 **** 0.06
29309 H 31.381051913211223 24.569954140609525 93.4730851386158 H 0.0 **** 0.06
29310 H 30.68993937446558 22.961255206904184 93.15408911725447 H 0.0 **** 0.06
29311 C 307.9206817237221 45.64408117988563 238.41130444612565 C 0.0 **** -0.24
29312 H 308.2720347524333 45.02796965589843 237.58413095442882 H 0.0 **** 0.06
29313 H 306.8395412144279 45.54068461285672 238.50783269329855 H 0.0 **** 0.06
29314 H 308.171140417994 46.687180837384005 238.218885903306 H 0.0 **** 0.06
29315 H 308.4000283847053 45.31965238593759 239.3349148001803 H 0.0 **** 0.06
29316 C 110.555989314051 176.8412687026622 53.357925658009435 C 0.0 **** -0.24
29317 H 110.34452715179378 175.83274887070093 53.71252240081202 H 0.0 **** 0.06
29318 H 111.46172962642504 176.8298705251043 52.7511737149008 H 0.0 **** 0.06
29319 H 110.69902890779005 177.50349139081948 54.21215346050985 H 0.0 **** 0.06
29320 H 109.71935367218236 177.1974133509176 52.757622286386095 H 0.0 **** 0.06
29321 C 24.345438674062564 164.40711326973678 302.9329957346677 C 0.0 **** -0.24
29322 H 24.18533965126298 164.50890435941318 304.00593432694376 H 0.0 **** 0.06
29323 H 24.34549678928815 163.34995116523072 302.6650206663989 H 0.0 **** 0.06
29324 H 25.303955421099886 164.85051934613597 302.66569994123967 H 0.0 **** 0.06
29325 H 23.545572718134764 164.91799675077476 302.39703037101174 H 0.0 **** 0.06
29326 C 220.93701951082315 199.68994487774734 296.076253741931 C 0.0 **** -0.24
29327 H 221.21214374513914 200.7375737921979 296.20033704280036 H 0.0 **** 0.06
29328 H 221.3166065668521 199.1128787578789 296.9199673864382 H 0.0 **** 0.06
29329 H 221.36785096797504 199.3081010308049 295.1502926815874 H 0.0 **** 0.06
29330 H 219.85127186369436 199.60206003041026 296.03493000661166 H 0.0 **** 0.06
29331 C 77.30062249277819 229.69294624242733 115.1445297511548 C 0.0 **** -0.24
29332 H 77.19663553514991 228.65732688834666 114.8210631912795 H 0.0 **** 0.06
29333 H 77.5042118156471 230.32466068882587 114.2788094705584 H 0.0 **** 0.06
29334 H 78.12485741704506 229.77071384162264 115.85373588574814 H 0.0 **** 0.06
29335 H 76.37653302795985 230.01881477490141 115.62281806801877 H 0.0 **** 0.06
29336 C 47.996237866400406 45.422435097304515 240.98118408530755 C 0.0 **** -0.24
29337 H 47.3342750468417 44.8180310832206 240.36026269941817 H 0.0 **** 0.06
29338 H 48.98188233215802 44.95830769314591 241.01776400362596 H 0.0 **** 0.06
29339 H 47.58829709076764 45.48869988620004 241.98928063157683 H 0.0 **** 0.06
29340 H 48.08020568413883 46.422529579502566 240.55633495849435 H 0.0 **** 0.06
29341 C 2.5495440013091866 202.48853067794585 301.9788116070629 C 0.0 **** -0.24
29342 H 1.9554623991173372 202.69212435925886 302.87035970892646 H 0.0 **** 0.06
29343 H 2.19035467648537 203.10586610318626 301.15514641197007 H 0.0 **** 0.06
29344 H 2.4558997865840553 201.43620096891766 301.71331341879227 H 0.0 **** 0.06
29345 H 3.5956024831058073 202.72172229455725 302.17888827986286 H 0.0 **** 0.06
29346 C 217.2082686974422 24.059720387934107 34.46655064004355 C 0.0 **** -0.24
29347 H 216.96853012748608 23.38785869859879 35.290325266750045 H 0.0 **** 0.06
29348 H 216.34874895935772 24.695880596066957 34.25468426579155 H 0.0 **** 0.06
29349 H 217.4542901634056 23.474931528111597 33.58023761551894 H 0.0 **** 0.06
29350 H 218.06150553951946 24.680210728959054 34.740955412113635 H 0.0 **** 0.06
29351 C 149.28344795657773 232.78882083404687 185.92520014666155 C 0.0 **** -0.24
29352 H 150.30950841772858 233.07899351524554 186.14918025934952 H 0.0 **** 0.06
29353 H 148.89163912239655 232.17863043916438 186.7393677412956 H 0.0 **** 0.06
29354 H 149.2621542785887 232.21541362481383 184.99794338291963 H 0.0 **** 0.06
29355 H 148.6693714127768 233.68316509472217 185.8129294995897 H 0.0 **** 0.06
29356 C 310.0396111042808 160.4732531620262 274.33411379371904 C 0.0 **** -0.24
29357 H 309.26552549352266 161.04734664013318 273.8252970352687 H 0.0 **** 0.06
29358 H 309.5832795935456 159.62999600186345 274.85391978682213 H 0.0 **** 0.06
29359 H 310.5497208711206 161.11123552677674 275.0550838854429 H 0.0 **** 0.06
29360 H 310.75769333945317 160.10449080892624 273.6023682260519 H 0.0 **** 0.06
29361 C 163.53973391139328 210.98233824908135 171.86038090313974 C 0.0 **** -0.24
29362 H 164.4812589989565 210.54378807606616 171.53068315906256 H 0.0 **** 0.06
29363 H 163.72137331661236 211.98815155679682 172.24022043526872 H 0.0 **** 0.06
29364 H 163.10814335220988 210.36716833414738 172.6490011592062 H 0.0 **** 0.06
29365 H 162.84775660895934 211.03077341637112 171.01869342892837 H 0.0 **** 0.06
29366 C 6.211649351167466 61.02952472001459 116.52258447053416 C 0.0 **** -0.24
29367 H 5.404151049985273 61.439791748576795 115.91674719395562 H 0.0 **** 0.06
29368 H 5.940478240211917 60.026938240335085 116.85802737684736 H 0.0 **** 0.06
29369 H 6.378145807014846 61.66954926302424 117.38854166379943 H 0.0 **** 0.06
29370 H 7.1227674478104746 60.97969648989937 115.92640554508375 H 0.0 **** 0.06
29371 C 80.21410696824069 21.74294762332238 195.75506123765217 C 0.0 **** -0.24
29372 H 80.05997019344676 22.0654453758616 194.72570639079606 H 0.0 **** 0.06
29373 H 79.32698283258455 21.217155159334425 196.10747065949835 H 0.0 **** 0.06
29374 H 80.39508832993371 22.614061377140985 196.3846022797827 H 0.0 **** 0.06
29375 H 81.07526594774123 21.07599704136743 195.80177831631846 H 0.0 **** 0.06
29376 C 40.62293670652855 58.17378312258751 235.56359104042397 C 0.0 **** -0.24
29377 H 40.62749106670799 58.76196458255376 234.6459820946497 H 0.0 **** 0.06
29378 H 39.853055287179245 57.40510766082673 235.4978264323364 H 0.0 **** 0.06
29379 H 40.41346336733454 58.82679247849049 236.41135931967503 H 0.0 **** 0.06
29380 H 41.59608867011093 57.704069267636214 235.69853728940808 H 0.0 **** 0.06
29381 C 12.511965209950773 160.8466681360594 306.48764096648324 C 0.0 **** -0.24
29382 H 11.792666419519463 161.00442770449115 307.29079195796413 H 0.0 **** 0.06
29383 H 12.527550481710435 159.7898094601755 306.21816518622677 H 0.0 **** 0.06
29384 H 13.502921948668174 161.15039386840323 306.82314769610446 H 0.0 **** 0.06
29385 H 12.22353105278539 161.4391826696696 305.6205587296901 H 0.0 **** 0.06
29386 C 121.15311074802011 134.96290228007325 228.93836488565245 C 0.0 **** -0.24
29387 H 121.34354996710508 135.44569817157128 229.89694841438325 H 0.0 **** 0.06
29388 H 120.45154202671594 134.13980389982078 229.08007495293725 H 0.0 **** 0.06
29389 H 122.08841162013815 134.5768073788972 228.5337003905127 H 0.0 **** 0.06
29390 H 120.7286660671299 135.68783256437516 228.24406729526785 H 0.0 **** 0.06
29391 C 130.45412132184006 171.66801549885156 132.21908280198517 C 0.0 **** -0.24
29392 H 130.96866876873264 171.34808442768622 131.31274048991312 H 0.0 **** 0.06
29393 H 129.70884016070113 172.4228102199616 131.96636700523229 H 0.0 **** 0.06
29394 H 131.176492043462 172.08844213009928 132.91769881357345 H 0.0 **** 0.06
29395 H 129.9611773783653 170.81022812446315 132.6784970450833 H 0.0 **** 0.06
29396 C 42.615240638411564 152.46026426099348 139.9074621836404 C 0.0 **** -0.24
29397 H 43.57861907484198 152.53772631381423 140.41153754400912 H 0.0 **** 0.06
29398 H 42.74880055785658 152.63595262405556 138.8396898763223 H 0.0 **** 0.06
29399 H 41.931070929907634 153.20407099904418 140.31529756020024 H 0.0 **** 0.06
29400 H 42.20384063890788 151.46347143517 140.06300782952613 H 0.0 **** 0.06
29401 C 219.08983729389112 276.83506420650286 233.00823243991306 C 0.0 **** -0.24
29402 H 218.91023288530374 277.74619885973914 232.43751512791977 H 0.0 **** 0.06
29403 H 218.5671056027375 276.0028504017677 232.53660640912204 H 0.0 **** 0.06
29404 H 218.7222551221085 276.9653920088719 234.0256509167383 H 0.0 **** 0.06
29405 H 220.1594803470136 276.6263893320204 233.03189435516265 H 0.0 **** 0.06
29406 C 86.41973089533008 6.112806256308247 92.8112786122851 C 0.0 **** -0.24
29407 H 85.91795632813856 6.460913056374466 91.90938045748248 H 0.0 **** 0.06
29408 H 86.0663222660269 6.686094260779512 93.66826084899282 H 0.0 **** 0.06
29409 H 87.49632419714916 6.247414770277757 92.70311316561413 H 0.0 **** 0.06
29410 H 86.19923028073961 5.056678231446099 92.96543574837239 H 0.0 **** 0.06
29411 C 162.5877721542438 80.49422073252745 279.1971750655734 C 0.0 **** -0.24
29412 H 163.10670731763582 79.5575397944888 278.99642033626355 H 0.0 **** 0.06
29413 H 161.65852105978684 80.28799610318424 279.7278295233124 H 0.0 **** 0.06
29414 H 162.36503620564878 80.99515331029733 278.2550765571163 H 0.0 **** 0.06
29415 H 163.22082403390363 81.13619372213947 279.8093738456013 H 0.0 **** 0.06
29416 C 88.84218509910045 138.63721312798614 25.544960482900876 C 0.0 **** -0.24
29417 H 89.45915529320197 137.75542952898516 25.368113599354842 H 0.0 **** 0.06
29418 H 89.2063018812866 139.4631457727326 24.932629206232065 H 0.0 **** 0.06
29419 H 88.89737954475558 138.91258585054194 26.598436533611505 H 0.0 **** 0.06
29420 H 87.80833678235336 138.4154872582596 25.280191438983792 H 0.0 **** 0.06
29421 C 169.8598726170447 154.89323472276197 101.73949294573927 C 0.0 **** -0.24
29422 H 170.14804227333684 155.5950891482487 100.9572263912857 H 0.0 **** 0.06
29423 H 170.25324669461048 155.23450816763847 102.6974254194597 H 0.0 **** 0.06
29424 H 170.2662049218186 153.9073725957175 101.50952494217944 H 0.0 **** 0.06
29425 H 168.77313200826956 154.83411727697074 101.7932639749425 H 0.0 **** 0.06
29426 C 173.70902247728844 250.3764652702822 69.042516667229 C 0.0 **** -0.24
29427 H 174.33548813666454 250.190665161785 69.91503798388564 H 0.0 **** 0.06
29428 H 172.87216644595338 251.0140478105927 69.32553403738294 H 0.0 **** 0.06
29429 H 173.3312705569141 249.42902517018408 68.65787775324736 H 0.0 **** 0.06
29430 H 174.2990398369197 250.87172081772667 68.27046691876026 H 0.0 **** 0.06
29431 C 259.5391263677377 304.23105739554416 182.88382667949043 C 0.0 **** -0.24
29432 H 258.84548441593085 304.447521499612 183.69537056463577 H 0.0 **** 0.06
29433 H 259.1589310439657 303.39631943459165 182.29334178480616 H 0.0 **** 0.06
29434 H 260.5130390911554 303.9693034996086 183.2978366510166 H 0.0 **** 0.06
29435 H 259.63962422880945 305.11020383383004 182.2467842373033 H 0.0 **** 0.06
29436 C 121.68290090352457 189.89016943547 308.18002326900086 C 0.0 **** -0.24
29437 H 120.85334776051519 189.70601294428508 307.4968290631715 H 0.0 **** 0.06
29438 H 121.45187165360136 190.7492222924896 308.8095890103278 H 0.0 **** 0.06
29439 H 122.58709817129346 190.09397562140134 307.60596082294177 H 0.0 **** 0.06
29440 H 121.83990059384021 189.01180611021613 308.80536742391564 H 0.0 **** 0.06
29441 C 193.4884378589976 68.25794039040716 111.07890359695077 C 0.0 **** -0.24
29442 H 193.4073551386394 67.22575651280394 110.73841221033314 H 0.0 **** 0.06
29443 H 194.30751827602722 68.34257817601662 111.79361407614616 H 0.0 **** 0.06
29444 H 192.5553935052094 68.55662747898666 111.55774554509466 H 0.0 **** 0.06
29445 H 193.68193990250268 68.9083452389934 110.22536868492955 H 0.0 **** 0.06
29446 C 251.7080482850184 70.76579116994569 67.70728978422997 C 0.0 **** -0.24
29447 H 250.81501703687007 70.69066427819047 68.32651307439292 H 0.0 **** 0.06
29448 H 251.58317005915512 70.15110896330918 66.8150008342412 H 0.0 **** 0.06
29449 H 252.5716246310061 70.41576514087299 68.27160885835463 H 0.0 **** 0.06
29450 H 251.86178574141908 71.80410520993041 67.41421113153169 H 0.0 **** 0.06
29451 C 47.05466427411949 37.31893448690599 109.67549414562811 C 0.0 **** -0.24
29452 H 47.877305752608095 36.84418899820474 110.20796767335287 H 0.0 **** 0.06
29453 H 47.44352472505972 37.85458565937074 108.80952144351392 H 0.0 **** 0.06
29454 H 46.547968909691434 38.018866549956584 110.33901902033458 H 0.0 **** 0.06
29455 H 46.3487409967575 36.5568078262703 109.34371012745581 H 0.0 **** 0.06
29456 C 94.12969236562199 234.83307374200416 51.03551183727643 C 0.0 **** -0.24
29457 H 93.06439041247177 235.0239909621236 50.90966387601887 H 0.0 **** 0.06
29458 H 94.51149394835141 235.4348256725912 51.86085389954292 H 0.0 **** 0.06
29459 H 94.65692301830194 235.09804962245414 50.11889306547434 H 0.0 **** 0.06
29460 H 94.28701700663598 233.77733971568654 51.25312150282045 H 0.0 **** 0.06
29461 C 82.72653148896578 307.2025830420096 125.73239375944439 C 0.0 **** -0.24
29462 H 82.32245877843701 306.19614557542997 125.62063856710807 H 0.0 **** 0.06
29463 H 83.81350586501537 307.15135148707276 125.80128052920477 H 0.0 **** 0.06
29464 H 82.32454747388854 307.6571568330818 126.63724173837349 H 0.0 **** 0.06
29465 H 82.44508435432908 307.804727583864 124.8682196952395 H 0.0 **** 0.06
29466 C 112.00055533332448 15.536287538531553 109.79749549977157 C 0.0 **** -0.24
29467 H 112.83615991191067 14.892343128247589 110.07321988815153 H 0.0 **** 0.06
29468 H 111.31462419930418 14.985090705907766 109.15474603219184 H 0.0 **** 0.06
29469 H 112.37564687221095 16.409953601475948 109.26583556023456 H 0.0 **** 0.06
29470 H 111.47720832041946 15.855562163053946 110.69885390181773 H 0.0 **** 0.06
29471 C 204.9951682467261 242.11858072424286 199.11776270227728 C 0.0 **** -0.24
29472 H 205.77377040718005 242.87388438430685 199.01068606113915 H 0.0 **** 0.06
29473 H 204.02410059135644 242.60716697175647 199.19699928958659 H 0.0 **** 0.06
29474 H 205.18017527543282 241.53106248751897 200.0168661831908 H 0.0 **** 0.06
29475 H 205.00276038636605 241.46302923728288 198.24705554338078 H 0.0 **** 0.06
29476 C 147.90434441433504 233.84356849429219 189.51128369850937 C 0.0 **** -0.24
29477 H 147.0307107884255 234.3979001285121 189.16681732604275 H 0.0 **** 0.06
29478 H 148.21439979273498 233.13888324294794 188.74012177927966 H 0.0 **** 0.06
29479 H 147.65255432224453 233.2985923294376 190.4215018497087 H 0.0 **** 0.06
29480 H 148.71724595773694 234.53939280654055 189.71798627560167 H 0.0 **** 0.06
29481 C 267.28002869823575 143.60182626830832 19.068841408397404 C 0.0 **** -0.24
29482 H 268.0007646549907 143.9923628091645 19.788554718842065 H 0.0 **** 0.06
29483 H 266.6953012551258 144.4247165560217 18.658071716015925 H 0.0 **** 0.06
29484 H 266.61619339344276 142.89611463869022 19.567094485397234 H 0.0 **** 0.06
29485 H 267.8111181588626 143.09502003842763 18.263234941664606 H 0.0 **** 0.06
29486 C 67.3856123677655 17.351863475971072 91.07141802000092 C 0.0 **** -0.24
29487 H 67.40304241571931 16.27855364064257 90.88254361684804 H 0.0 **** 0.06
29488 H 66.38191576020256 17.652103504353605 91.37238379113586 H 0.0 **** 0.06
29489 H 67.66668414132826 17.884723624886817 90.1623580245778 H 0.0 **** 0.06
29490 H 68.09127530929547 17.591713217138476 91.86675836497145 H 0.0 **** 0.06
29491 C 79.56413635304799 88.75906584006987 224.61703861285537 C 0.0 **** -0.24
29492 H 80.41861487631445 89.4054428939499 224.81443542648418 H 0.0 **** 0.06
29493 H 78.76980081996288 89.33927450646468 224.1473415670718 H 0.0 **** 0.06
29494 H 79.20179646508171 88.34006056235043 225.5566245535041 H 0.0 **** 0.06
29495 H 79.866374875388 87.95042076418719 223.95255734081132 H 0.0 **** 0.06
29496 C 283.00441664315804 151.77474889370137 24.860501694239815 C 0.0 **** -0.24
29497 H 283.43640939044576 152.51484259662425 25.534145463119813 H 0.0 **** 0.06
29498 H 282.3618423246671 151.10004350430614 25.427241703570218 H 0.0 **** 0.06
29499 H 283.8037288603533 151.20420591064317 24.387946901461504 H 0.0 **** 0.06
29500 H 282.41576668444515 152.2800911162705 24.095113680015686 H 0.0 **** 0.06
29501 C 155.81086618164875 103.35252506694363 29.92031009705238 C 0.0 **** -0.24
29502 H 156.48834651877394 102.99433473651587 29.146313054388088 H 0.0 **** 0.06
29503 H 156.1264135186218 102.96322728295988 30.88804583647334 H 0.0 **** 0.06
29504 H 154.79833720098628 103.01009882136526 29.702786104844506 H 0.0 **** 0.06
29505 H 155.82832886432107 104.44202680502758 29.943274552504278 H 0.0 **** 0.06
29506 C 10.431254166144072 149.11345833815693 280.96132906469836 C 0.0 **** -0.24
29507 H 10.428676990694726 150.163530813749 280.66931108006287 H 0.0 **** 0.06
29508 H 9.900696712354943 148.99894341540585 281.90686038254694 H 0.0 **** 0.06
29509 H 11.458841015465111 148.77041714880139 281.07666923161275 H 0.0 **** 0.06
29510 H 9.934737125094102 148.52179832029964 280.19253221307105 H 0.0 **** 0.06
29511 C 295.23288277644616 113.17450525770579 203.81109884852668 C 0.0 **** -0.24
29512 H 295.71690282652827 113.52738383129085 204.72194661566164 H 0.0 **** 0.06
29513 H 295.19878499470497 112.08466440966731 203.81848945584034 H 0.0 **** 0.06
29514 H 295.7988357966767 113.51596970652648 202.94362690955387 H 0.0 **** 0.06
29515 H 294.2189952238664 113.57066246019497 203.7616029069727 H 0.0 **** 0.06
29516 C 130.3898171503228 275.15688529471146 140.22593715382092 C 0.0 **** -0.24
29517 H 129.32407541738246 275.31723900843866 140.05957429731188 H 0.0 **** 0.06
29518 H 130.54121706169758 274.1895468542079 140.70501205260297 H 0.0 **** 0.06
29519 H 130.77917219266186 275.9464281533186 140.86839421361208 H 0.0 **** 0.06
29520 H 130.91290460520298 275.175015471239 139.26938283493305 H 0.0 **** 0.06
29521 C 54.22728368868641 78.44386613264268 166.06094351116872 C 0.0 **** -0.24
29522 H 53.65898593736364 79.29548962885414 166.43455485356623 H 0.0 **** 0.06
29523 H 53.70514229768389 78.00456347284577 165.21066126798604 H 0.0 **** 0.06
29524 H 54.3281390480752 77.69971905570918 166.850374109717 H 0.0 **** 0.06
29525 H 55.21651048686627 78.77806264455413 165.74767943019037 H 0.0 **** 0.06
29526 C 118.13827356256795 18.75527032250602 89.56079062280799 C 0.0 **** -0.24
29527 H 117.55525439491393 17.86441443393028 89.32836045386765 H 0.0 **** 0.06
29528 H 118.62152161873772 18.630936863028126 90.53021770105485 H 0.0 **** 0.06
29529 H 117.47937869443695 19.62265906823781 89.5906178467111 H 0.0 **** 0.06
29530 H 118.89781121577002 18.901669397396986 88.79245787151115 H 0.0 **** 0.06
29531 C 208.77201482905218 66.64948044580564 46.67025066247322 C 0.0 **** -0.24
29532 H 208.6721347344519 66.52764474084512 45.59146042340038 H 0.0 **** 0.06
29533 H 207.81296422061575 66.44722370697508 47.14896090872128 H 0.0 **** 0.06
29534 H 209.0824319083591 67.66927550762261 46.89310848547015 H 0.0 **** 0.06
29535 H 209.5205428216492 65.95070921060179 47.04533193408008 H 0.0 **** 0.06
29536 C 268.9293264143143 246.43426314632902 255.52617817221554 C 0.0 **** -0.24
29537 H 268.12734398771306 245.78633131692374 255.17211619610381 H 0.0 **** 0.06
29538 H 269.259451489774 247.0800543026234 254.7119806711473 H 0.0 **** 0.06
29539 H 269.7649100806824 245.823428377554 255.86804389453317 H 0.0 **** 0.06
29540 H 268.56542456902355 247.04729839277903 256.3503435565689 H 0.0 **** 0.06
29541 C 178.37010088894033 185.44457632648204 223.30232709557677 C 0.0 **** -0.24
29542 H 177.46860385640866 185.71747647117292 223.8513944536987 H 0.0 **** 0.06
29543 H 178.1707452067164 185.48781866887822 222.23163117175903 H 0.0 **** 0.06
29544 H 178.6698277106821 184.43289039084698 223.57641786806818 H 0.0 **** 0.06
29545 H 179.17118668920625 186.14110379219915 223.5512897102756 H 0.0 **** 0.06
29546 C 13.111840334138975 206.94975205102173 265.00583718888896 C 0.0 **** -0.24
29547 H 13.84816265117388 206.29679398355012 264.5359248959187 H 0.0 **** 0.06
29548 H 13.256619606807618 207.97153980360343 264.65566851711696 H 0.0 **** 0.06
29549 H 13.235274131920477 206.9145767426478 266.08797495389564 H 0.0 **** 0.06
29550 H 12.10823754837513 206.61339709208346 264.7428654294315 H 0.0 **** 0.06
29551 C 240.80150325431197 106.31070947206246 181.16750557160833 C 0.0 **** -0.24
29552 H 240.19444851837983 105.90294270144105 181.97535342558263 H 0.0 **** 0.06
29553 H 241.8310515604806 105.96811890386519 181.27794263167812 H 0.0 **** 0.06
29554 H 240.77434483722342 107.39908354081089 181.20682034135314 H 0.0 **** 0.06
29555 H 240.40705770761153 105.97067472275631 180.21027496867748 H 0.0 **** 0.06
29556 C 254.52313391228543 235.04163219978784 63.718117917619765 C 0.0 **** -0.24
29557 H 254.76357865396588 236.03016522163787 64.10907077889465 H 0.0 **** 0.06
29558 H 253.60528724821398 235.0967467912556 63.13248984919815 H 0.0 **** 0.06
29559 H 254.3851044332445 234.3472002763571 64.54685099678633 H 0.0 **** 0.06
29560 H 255.33883279969433 234.6937785906656 63.08378949754865 H 0.0 **** 0.06
29561 C 122.7276816744687 6.494686946077408 133.19566292778634 C 0.0 **** -0.24
29562 H 123.70471055798802 6.015405840921275 133.1294018111344 H 0.0 **** 0.06
29563 H 122.52746069202564 7.039630175793519 132.27233265577235 H 0.0 **** 0.06
29564 H 122.72073449291813 7.189427347934554 134.0359330412777 H 0.0 **** 0.06
29565 H 121.96027242050232 5.7353781263183095 133.34409304731733 H 0.0 **** 0.06
29566 C 177.78775350131122 270.08605765626464 216.533751473507 C 0.0 **** -0.24
29567 H 178.48105681065812 270.3063933474616 215.72163198887756 H 0.0 **** 0.06
29568 H 176.93663569251822 270.7660449020898 216.48011214062848 H 0.0 **** 0.06
29569 H 178.2955253694791 270.2140620684578 217.4895328023918 H 0.0 **** 0.06
29570 H 177.43747506300167 269.0582536431302 216.44210937972252 H 0.0 **** 0.06
29571 C 181.9883219808354 92.84009902090085 60.561196139189576 C 0.0 **** -0.24
29572 H 181.86901729107745 92.86387967763247 61.64411221101793 H 0.0 **** 0.06
29573 H 181.32105069270318 93.57347787468515 60.106283132639476 H 0.0 **** 0.06
29574 H 181.74158741332332 91.84522344548506 60.189450263698404 H 0.0 **** 0.06
29575 H 183.0204966552031 93.07845243858509 60.30438796171927 H 0.0 **** 0.06
29576 C 208.3484144236718 60.0718122841331 99.37671019578082 C 0.0 **** -0.24
29577 H 207.50723002982434 60.27852278471346 100.0393284419878 H 0.0 **** 0.06
29578 H 208.04977175703107 60.25052134780776 98.34393094704973 H 0.0 **** 0.06
29579 H 208.65298156352412 59.031071362284536 99.49267806407616 H 0.0 **** 0.06
29580 H 209.1816438422669 60.72490096060022 99.63371264896614 H 0.0 **** 0.06
29581 C 126.4135161106444 145.4215508079359 231.17229481010924 C 0.0 **** -0.24
29582 H 126.25333892746625 146.1409415567337 231.97417856845348 H 0.0 **** 0.06
29583 H 125.72658473424625 144.58286363256713 231.2938327246407 H 0.0 **** 0.06
29584 H 127.4405068697167 145.0587283277415 231.20842203770894 H 0.0 **** 0.06
29585 H 126.23244164476725 145.90261753605444 230.21088272741264 H 0.0 **** 0.06
29586 C 122.4287795435759 55.383985109573445 248.6080691234183 C 0.0 **** -0.24
29587 H 122.33400190817596 55.59400282366414 249.6739828698164 H 0.0 **** 0.06
29588 H 122.00499157234827 56.2096426910299 248.03595142056142 H 0.0 **** 0.06
29589 H 121.89463655130388 54.46388640206354 248.369909545669 H 0.0 **** 0.06
29590 H 123.4822979255519 55.26834688351019 248.35451603820545 H 0.0 **** 0.06
29591 C 8.72428521868278 268.9705938225755 29.751061524242573 C 0.0 **** -0.24
29592 H 7.953486502210694 268.97048250000415 30.522219536224384 H 0.0 **** 0.06
29593 H 9.135082139630413 269.97526496867806 29.649868001611026 H 0.0 **** 0.06
29594 H 8.288804112302614 268.65932183665166 28.802191511417163 H 0.0 **** 0.06
29595 H 9.518661268539972 268.27935371282894 30.031573822492533 H 0.0 **** 0.06
29596 C 81.15627015827994 36.52109369345169 144.221876338793 C 0.0 **** -0.24
29597 H 80.887633709373 37.05403581041179 145.13448168200435 H 0.0 **** 0.06
29598 H 82.21633822967698 36.26595711885818 144.24930568357235 H 0.0 **** 0.06
29599 H 80.95825737287132 37.15705156842421 143.35876286402242 H 0.0 **** 0.06
29600 H 80.56430808342608 35.60964345512559 144.14568113018046 H 0.0 **** 0.06
29601 C 9.262312960597058 171.46379874162454 293.51056603061784 C 0.0 **** -0.24
29602 H 8.305302396821261 171.96947708949858 293.6416634838499 H 0.0 **** 0.06
29603 H 10.01857243590095 171.9524419213297 294.1253853549629 H 0.0 **** 0.06
29604 H 9.55758168773481 171.5125814982473 292.46262902405726 H 0.0 **** 0.06
29605 H 9.165450752118275 170.4213639263977 293.8128204191657 H 0.0 **** 0.06
29606 C 67.70944512714715 283.60397029407653 210.91921456031207 C 0.0 **** -0.24
29607 H 67.95306230964064 282.83913786060384 210.1815639868071 H 0.0 **** 0.06
29608 H 68.61682682245666 283.90445684375516 211.44340407165168 H 0.0 **** 0.06
29609 H 66.99224069879133 283.20211107310837 211.6348005604989 H 0.0 **** 0.06
29610 H 67.27717498687403 284.46856049931466 210.41605588727344 H 0.0 **** 0.06
29611 C 201.1783399415342 115.41859713548311 198.0034910112816 C 0.0 **** -0.24
29612 H 201.89893341018785 114.73453412772588 198.45305992671905 H 0.0 **** 0.06
29613 H 201.41527676631478 116.44019087358012 198.2987240042208 H 0.0 **** 0.06
29614 H 200.17494651656045 115.16352503179968 198.34502169568412 H 0.0 **** 0.06
29615 H 201.22519030266614 115.33297349192534 196.91706844473913 H 0.0 **** 0.06
29616 C 253.4692321517516 116.2665221529146 111.62986676663584 C 0.0 **** -0.24
29617 H 252.69148490670233 115.83231712057838 112.25786004788424 H 0.0 **** 0.06
29618 H 253.4319338910309 115.81280985927066 110.63910526775189 H 0.0 **** 0.06
29619 H 254.44519735532157 116.07908136689963 112.07819279255148 H 0.0 **** 0.06
29620 H 253.30874930559932 117.34072719831212 111.54361642166668 H 0.0 **** 0.06
29621 C 218.91547794907848 150.24441944179966 51.23748018238069 C 0.0 **** -0.24
29622 H 217.91088294464157 149.87063721655534 51.43462498623785 H 0.0 **** 0.06
29623 H 219.3131057848102 150.710007891335 52.139871923674576 H 0.0 **** 0.06
29624 H 218.8783034349907 150.97939409618124 50.43470147470438 H 0.0 **** 0.06
29625 H 219.55940777908037 149.41508145057622 50.94325539688623 H 0.0 **** 0.06
29626 C 138.249681375064 39.03507901597703 10.769145495699775 C 0.0 **** -0.24
29627 H 137.99871087885057 40.08247481072047 10.93408550053175 H 0.0 **** 0.06
29628 H 139.13724769462644 38.7779098585132 11.348077622236588 H 0.0 **** 0.06
29629 H 138.44569663920794 38.87144533197156 9.7100664722239 H 0.0 **** 0.06
29630 H 137.41529900512387 38.407669804940724 11.085446144760112 H 0.0 **** 0.06
29631 C 182.95298974252438 261.266498715115 15.29197105983809 C 0.0 **** -0.24
29632 H 183.50217298249868 261.9665822549635 14.662773035456667 H 0.0 **** 0.06
29633 H 183.414723428954 260.2811798171201 15.227690251069788 H 0.0 **** 0.06
29634 H 181.9189290394272 261.20695348394514 14.95335006972536 H 0.0 **** 0.06
29635 H 182.97725685755665 261.6127352237062 16.32621994011795 H 0.0 **** 0.06
29636 C 292.30758034016617 186.879529395386 275.2201173135673 C 0.0 **** -0.24
29637 H 291.5955845131226 186.2234651880393 275.7202423431996 H 0.0 **** 0.06
29638 H 291.9500696192973 187.1046648950387 274.214937506403 H 0.0 **** 0.06
29639 H 293.277037883499 186.38375177182417 275.15889660305675 H 0.0 **** 0.06
29640 H 292.407838151583 187.80510777886485 275.787219930695 H 0.0 **** 0.06
29641 C 229.28373999792717 119.66220413599987 305.5425711777713 C 0.0 **** -0.24
29642 H 229.84001109256167 120.16223630797333 304.75042432201076 H 0.0 **** 0.06
29643 H 229.65754525520737 118.64488823379222 305.6617992708367 H 0.0 **** 0.06
29644 H 228.22626829820013 119.63164478277741 305.2796984310694 H 0.0 **** 0.06
29645 H 229.41074289609742 120.20841818911833 306.47688205691395 H 0.0 **** 0.06
29646 C 118.53379581764705 34.27143670684606 100.34917594526155 C 0.0 **** -0.24
29647 H 119.25983921203795 33.5818476544334 100.77865385364166 H 0.0 **** 0.06
29648 H 118.60917633897756 34.248161748377015 99.26208284769751 H 0.0 **** 0.06
29649 H 118.73682934470051 35.28102819492116 100.70642902663675 H 0.0 **** 0.06
29650 H 117.52887534844209 33.97457925917604 100.65041481911848 H 0.0 **** 0.06
29651 C 280.2263732947614 28.276045965466068 34.623065749199526 C 0.0 **** -0.24
29652 H 280.02229741151643 29.344658513032073 34.55507598928267 H 0.0 **** 0.06
29653 H 281.2328541079556 28.074309119918894 34.25787543841335 H 0.0 **** 0.06
29654 H 279.5031553178211 27.72991470185832 34.0172598796413 H 0.0 **** 0.06
29655 H 280.145700511108 27.95697122910957 35.66198516984406 H 0.0 **** 0.06
29656 C 259.4090313504809 208.70673046922266 131.628250183734 C 0.0 **** -0.24
29657 H 258.41156113935017 208.45563601207388 131.989404033084 H 0.0 **** 0.06
29658 H 260.1135010466772 208.68325067202437 132.45982128548823 H 0.0 **** 0.06
29659 H 259.3964813300195 209.70409646865707 131.18990795976126 H 0.0 **** 0.06
29660 H 259.714202672673 207.9818639528983 130.87312479640113 H 0.0 **** 0.06
29661 C 1.479035555279438 27.011727675640685 300.9240012897787 C 0.0 **** -0.24
29662 H 2.5642327082223915 27.03699406459222 300.82143374146347 H 0.0 **** 0.06
29663 H 1.1948130479215138 27.44132387402894 301.88507206063287 H 0.0 **** 0.06
29664 H 1.134378511394175 25.97905898485024 300.8711690404322 H 0.0 **** 0.06
29665 H 1.0243809899873213 27.588004551458795 300.1192767835812 H 0.0 **** 0.06
29666 C 56.05009639253706 49.87494890692764 87.37845775684704 C 0.0 **** -0.24
29667 H 56.91114093148218 49.544336792622914 87.95968429071993 H 0.0 **** 0.06
29668 H 55.18841211160759 49.98201471891747 88.03614799906964 H 0.0 **** 0.06
29669 H 55.82941055697438 49.137542059642584 86.60569695272935 H 0.0 **** 0.06
29670 H 56.274587940290644 50.83394305293899 86.91192895698404 H 0.0 **** 0.06
29671 C 128.88907466850458 52.770969085943506 21.9632996293343 C 0.0 **** -0.24
29672 H 128.04100195517742 53.4561122841597 21.96050261598566 H 0.0 **** 0.06
29673 H 129.59244855874954 53.06159045502136 21.182406074298456 H 0.0 **** 0.06
29674 H 128.5369321769947 51.75614550490326 21.776939447895415 H 0.0 **** 0.06
29675 H 129.3852126766509 52.81142116621757 22.93259888783956 H 0.0 **** 0.06
29676 C 264.19276811683005 125.43923660502767 303.19857023864245 C 0.0 **** -0.24
29677 H 264.287567963532 124.45042610184512 302.7486300952329 H 0.0 **** 0.06
29678 H 264.6171660325093 125.42307511977447 304.2027911151424 H 0.0 **** 0.06
29679 H 263.13954587319733 125.71393548084953 303.25277154077605 H 0.0 **** 0.06
29680 H 264.72758531178914 126.16744610640757 302.58975184621704 H 0.0 **** 0.06
29681 C 302.7328090189598 172.5893061836419 289.63119355939784 C 0.0 **** -0.24
29682 H 303.53898119325845 172.09294571538356 289.0900447208122 H 0.0 **** 0.06
29683 H 302.2329754457782 171.8691965389442 290.2786121613496 H 0.0 **** 0.06
29684 H 302.01561677543725 172.99814598675812 288.91884136067625 H 0.0 **** 0.06
29685 H 303.14536799695554 173.3978721546182 290.23578723829894 H 0.0 **** 0.06
29686 C 224.60972560631285 291.65290644442575 161.05850641616064 C 0.0 **** -0.24
29687 H 223.79028449244413 291.24841703680073 160.46395538206764 H 0.0 **** 0.06
29688 H 225.56027248641584 291.3603380385798 160.61357641936667 H 0.0 **** 0.06
29689 H 224.54818497477555 291.26134240907624 162.0746096163645 H 0.0 **** 0.06
29690 H 224.5382320427882 292.73967997543764 161.08385019014594 H 0.0 **** 0.06
29691 C 116.5706343172383 29.09443046506985 181.05270404145193 C 0.0 **** -0.24
29692 H 116.02887732389311 29.949635108338242 181.4570006272226 H 0.0 **** 0.06
29693 H 117.58745941213675 29.395190663408755 180.80019586408537 H 0.0 **** 0.06
29694 H 116.06421080705513 28.734548724716234 180.15675107729754 H 0.0 **** 0.06
29695 H 116.59976363529233 28.298340031366905 181.79707952253898 H 0.0 **** 0.06
29696 C 230.31339539314848 255.35358800109987 173.6829961285083 C 0.0 **** -0.24
29697 H 229.27683440891224 255.63246058783153 173.49452131669227 H 0.0 **** 0.06
29698 H 230.92972948448187 256.2523547703961 173.72103474948585 H 0.0 **** 0.06
29699 H 230.66607505525667 254.70297040857588 172.8824986857357 H 0.0 **** 0.06
29700 H 230.3792117106879 254.82707560382772 174.63558641910356 H 0.0 **** 0.06
29701 C 286.7020035624634 291.72054692963303 56.327820907473296 C 0.0 **** -0.24
29702 H 285.82760245476516 291.8062613652836 56.97361506372181 H 0.0 **** 0.06
29703 H 286.49897037528257 292.2116316372318 55.37557897942648 H 0.0 **** 0.06
29704 H 286.92426157947415 290.668060710661 56.1550508938295 H 0.0 **** 0.06
29705 H 287.5557025514164 292.1980384484546 56.80863920489219 H 0.0 **** 0.06
29706 C 201.0035948222312 298.1183938438932 49.81085889137495 C 0.0 **** -0.24
29707 H 200.67098316018024 297.37695949000675 50.53706955601845 H 0.0 **** 0.06
29708 H 201.8819563369011 297.74222818367946 49.2843992016397 H 0.0 **** 0.06
29709 H 201.25843113217172 299.0441081147219 50.32677544825469 H 0.0 **** 0.06
29710 H 200.2050526468658 298.31017454292413 49.09429074614471 H 0.0 **** 0.06
29711 C 263.1009972176038 97.19281381683535 174.45845207597887 C 0.0 **** -0.24
29712 H 262.83513059351833 96.42306696015612 173.73524321519034 H 0.0 **** 0.06
29713 H 264.18567814387535 97.3013128276097 174.49207660254575 H 0.0 **** 0.06
29714 H 262.7343404009348 96.90853399563701 175.4443679488087 H 0.0 **** 0.06
29715 H 262.6500024719436 98.14027381581215 174.16307665272626 H 0.0 **** 0.06
29716 C 176.94503457447263 124.9040714982419 209.0711221783473 C 0.0 **** -0.24
29717 H 177.86522287859674 124.55743843005641 208.59834172043776 H 0.0 **** 0.06
29718 H 176.60519914438686 124.15938459843991 209.79146560716487 H 0.0 **** 0.06
29719 H 176.17911136951227 125.05108651711393 208.3103524540502 H 0.0 **** 0.06
29720 H 177.1339733418954 125.84674908187054 209.5844022812612 H 0.0 **** 0.06
29721 C 133.0631004627748 10.11485392054172 131.17618640945776 C 0.0 **** -0.24
29722 H 132.97766431519773 10.561061515398862 132.16702181312402 H 0.0 **** 0.06
29723 H 132.06655842595327 9.96555953863323 130.7589736191536 H 0.0 **** 0.06
29724 H 133.57261443504575 9.15451054872922 131.25298789828585 H 0.0 **** 0.06
29725 H 133.63329552400984 10.778819843876391 130.52651326510656 H 0.0 **** 0.06
29726 C 150.58901103808284 21.68498148429464 145.9765886905725 C 0.0 **** -0.24
29727 H 151.153670741236 21.395059398730922 145.09105159409603 H 0.0 **** 0.06
29728 H 151.2303515832462 22.26112362097433 146.64389513850523 H 0.0 **** 0.06
29729 H 150.23851366330229 20.7906346370181 146.49197753213423 H 0.0 **** 0.06
29730 H 149.73342029833333 22.291757621377656 145.6798403860648 H 0.0 **** 0.06
29731 C 305.7157692735004 245.40542017051678 299.4771843793807 C 0.0 **** -0.24
29732 H 306.7505110312035 245.16364852362184 299.2361733596379 H 0.0 **** 0.06
29733 H 305.63587536059094 246.46637699006232 299.71453842040955 H 0.0 **** 0.06
29734 H 305.39584723315585 244.81496611372603 300.3356768047288 H 0.0 **** 0.06
29735 H 305.081101866485 245.1744989642705 298.62197912552546 H 0.0 **** 0.06
29736 C 100.68889493572121 157.6846273227291 107.43938555458797 C 0.0 **** -0.24
29737 H 100.1425420811623 158.09964116589208 108.28760040220229 H 0.0 **** 0.06
29738 H 101.28094134790157 156.83203151122046 107.77203067767496 H 0.0 **** 0.06
29739 H 101.34885260369546 158.44659758689028 107.02564222900713 H 0.0 **** 0.06
29740 H 99.98176052399845 157.36176679929486 106.67593853499545 H 0.0 **** 0.06
29741 C 261.1120994902162 256.7282183734229 295.5506372961705 C 0.0 **** -0.24
29742 H 261.10947460807006 256.0803696457609 294.67372082997736 H 0.0 **** 0.06
29743 H 261.44379823491056 257.7260857314808 295.2629725081151 H 0.0 **** 0.06
29744 H 261.7908692016139 256.32127182312763 296.2994747481455 H 0.0 **** 0.06
29745 H 260.1050390174152 256.78350086130405 295.96360993341784 H 0.0 **** 0.06
29746 C 100.03309959783132 29.087806964068903 134.76586873263915 C 0.0 **** -0.24
29747 H 100.68008321289025 29.48503188004497 133.98416551855428 H 0.0 **** 0.06
29748 H 99.15111115154119 29.720154885796887 134.86296575810238 H 0.0 **** 0.06
29749 H 100.5738452667643 29.069518239117315 135.71162873917268 H 0.0 **** 0.06
29750 H 99.72770199046826 28.074891501998138 134.5032246413124 H 0.0 **** 0.06
29751 C 84.89465683141913 139.82643244096954 180.0824373899701 C 0.0 **** -0.24
29752 H 85.05047842533543 139.32855238128766 181.0400481834813 H 0.0 **** 0.06
29753 H 85.453006140983 140.76334623091233 180.0654681079568 H 0.0 **** 0.06
29754 H 83.83314104976071 140.03357744525124 179.94997404149143 H 0.0 **** 0.06
29755 H 85.24320689827371 139.18067483662676 179.27634972847602 H 0.0 **** 0.06
29756 C 107.6046524534004 292.07830338974475 84.12260572061669 C 0.0 **** -0.24
29757 H 106.71066014628386 291.8847397670362 83.52920431184901 H 0.0 **** 0.06
29758 H 108.35274937143237 291.3143608058665 83.91070933094196 H 0.0 **** 0.06
29759 H 107.34973204195558 292.05384559973993 85.18168444590165 H 0.0 **** 0.06
29760 H 108.00431842991836 293.06020446075155 83.86666285664936 H 0.0 **** 0.06
29761 C 164.4114020278496 19.05281671385295 175.05953281888975 C 0.0 **** -0.24
29762 H 165.4898259169301 19.14583162591046 174.93644550974074 H 0.0 **** 0.06
29763 H 163.99978870078695 18.478257272886836 174.23028842571279 H 0.0 **** 0.06
29764 H 163.9599708992355 20.044453874720432 175.07518606105555 H 0.0 **** 0.06
29765 H 164.19675381118145 18.54154086830114 175.9979620932017 H 0.0 **** 0.06
29766 C 295.86892167120294 75.96205892638335 91.41881846190748 C 0.0 **** -0.24
29767 H 296.88286478495326 75.61276246824158 91.61395609703163 H 0.0 **** 0.06
29768 H 295.83181134406533 77.04537319540185 91.52470689070228 H 0.0 **** 0.06
29769 H 295.1836740273884 75.5022865975354 92.13232769869799 H 0.0 **** 0.06
29770 H 295.5771513132295 75.68382350426063 90.40571359974572 H 0.0 **** 0.06
29771 C 162.8271668787711 1.2716116172835115 256.2117796439855 C 0.0 **** -0.24
29772 H 163.52137136268368 0.6623154612011604 256.79016072663495 H 0.0 **** 0.06
29773 H 161.81113465421976 1.1012139716085159 256.5686234664461 H 0.0 **** 0.06
29774 H 162.8940534711 0.9984173578388891 255.15919167826624 H 0.0 **** 0.06
29775 H 163.0819145898202 2.3251762429814278 256.33036942848986 H 0.0 **** 0.06
29776 C 139.38935618040884 228.87605215680378 118.41866384030314 C 0.0 **** -0.24
29777 H 140.32669947770688 228.6446110522012 118.92469339347832 H 0.0 **** 0.06
29778 H 139.50973406574448 228.72909604322376 117.34530583119633 H 0.0 **** 0.06
29779 H 139.11678483105038 229.91236572129725 118.61638688408655 H 0.0 **** 0.06
29780 H 138.60470411652653 228.21710367097938 118.79085516615444 H 0.0 **** 0.06
29781 C 27.268985537615293 97.78621765278254 283.58378199601077 C 0.0 **** -0.24
29782 H 28.081141089443292 97.4956730362284 282.9171355103497 H 0.0 **** 0.06
29783 H 26.470475402066484 98.24779371261502 283.0029072640038 H 0.0 **** 0.06
29784 H 27.64055385277871 98.49711642192563 284.32151519662136 H 0.0 **** 0.06
29785 H 26.884580543794044 96.9021533502528 284.0926802772158 H 0.0 **** 0.06
29786 C 238.346969836457 245.43551001789766 17.02539666947837 C 0.0 **** -0.24
29787 H 238.21712340221123 245.75657275491739 15.992098082281359 H 0.0 **** 0.06
29788 H 239.35328852091988 245.68757035100248 17.360417034954935 H 0.0 **** 0.06
29789 H 238.2007538625282 244.35680874642736 17.092469853505975 H 0.0 **** 0.06
29790 H 237.61682819585633 245.9410955128373 17.657595090262134 H 0.0 **** 0.06
29791 C 5.635404500057916 137.5564032473454 76.31218344996051 C 0.0 **** -0.24
29792 H 5.07241423546526 137.93692774580805 75.45943353248555 H 0.0 **** 0.06
29793 H 4.992854968210821 137.53545833360485 77.1915688904873 H 0.0 **** 0.06
29794 H 6.490537946710759 138.20522876861958 76.50220866501903 H 0.0 **** 0.06
29795 H 5.986833209850786 136.54805230606908 76.09454708117855 H 0.0 **** 0.06
29796 C 253.50366499899985 280.25000867180705 286.74293756910356 C 0.0 **** -0.24
29797 H 253.509282846776 279.8316436928546 285.73667143532134 H 0.0 **** 0.06
29798 H 254.06846546480423 281.1821033542682 286.7525960241826 H 0.0 **** 0.06
29799 H 253.95989949885956 279.54040889334794 287.43320678159904 H 0.0 **** 0.06
29800 H 252.47554766886302 280.44470485634656 287.04858524579146 H 0.0 **** 0.06
29801 C 135.1617725304685 86.85377863227379 75.54103095726146 C 0.0 **** -0.24
29802 H 135.13851661170764 85.97024369779876 76.17846999673793 H 0.0 **** 0.06
29803 H 135.6381812075559 86.60522145161491 74.59289729132456 H 0.0 **** 0.06
29804 H 135.72706767530573 87.64358695128519 76.03569303194752 H 0.0 **** 0.06
29805 H 134.14332462730468 87.19606242839629 75.3570635090361 H 0.0 **** 0.06
29806 C 27.546653670684776 126.41558683671113 60.72711578103886 C 0.0 **** -0.24
29807 H 27.96995413284563 125.44523843578591 60.46750828936038 H 0.0 **** 0.06
29808 H 26.506252962217417 126.28861136208712 61.0276468910528 H 0.0 **** 0.06
29809 H 27.597321252390174 127.07729573749185 59.86302754937299 H 0.0 **** 0.06
29810 H 28.11245024558758 126.84947047579297 61.55105362437877 H 0.0 **** 0.06
29811 C 161.46567414730316 162.1666625717213 306.10599515203734 C 0.0 **** -0.24
29812 H 160.6278029926218 162.48503321986811 305.4863763942931 H 0.0 **** 0.06
29813 H 161.96151128921377 161.31716225803598 305.63622915064406 H 0.0 **** 0.06
29814 H 161.0992807467157 161.87482944264679 307.09043136257924 H 0.0 **** 0.06
29815 H 162.17292510948607 162.9889533754993 306.21053823798957 H 0.0 **** 0.06
29816 C 157.8497737803736 102.05126231446235 169.6143083747561 C 0.0 **** -0.24
29817 H 157.91803405589144 101.94075133717811 168.53201903767143 H 0.0 **** 0.06
29818 H 156.83068169793268 102.32720006660713 169.8864187149387 H 0.0 **** 0.06
29819 H 158.53742577439476 102.83096293046557 169.9432597975208 H 0.0 **** 0.06
29820 H 158.11187752710782 101.10860356254688 170.09359998585694 H 0.0 **** 0.06
29821 C 34.79194815587039 310.73577739743155 23.849253913066832 C 0.0 **** -0.24
29822 H 35.04441146347949 309.6815388104534 23.729459771703148 H 0.0 **** 0.06
29823 H 35.09716255282336 311.0719832426349 24.840488070234187 H 0.0 **** 0.06
29824 H 33.71595178641877 310.86600867292697 23.7366218809766 H 0.0 **** 0.06
29825 H 35.31047734756598 311.3212160261333 23.091056424285966 H 0.0 **** 0.06
29826 C 68.49699475691216 279.5367241839085 231.3099850103041 C 0.0 **** -0.24
29827 H 68.47619811723882 278.5536869073012 230.840662564838 H 0.0 **** 0.06
29828 H 69.37964398783444 280.0809021759358 230.97405049606596 H 0.0 **** 0.06
29829 H 68.53043857149802 279.42230614683587 232.39325615462843 H 0.0 **** 0.06
29830 H 67.60063226346341 280.0914948352225 231.03069276221265 H 0.0 **** 0.06
29831 C 59.573998341261756 73.81390094220345 4.036648545508015 C 0.0 **** -0.24
29832 H 60.47354729269057 73.60336567458424 3.4579068616779978 H 0.0 **** 0.06
29833 H 58.73809501598976 73.98880458425822 3.357256383843719 H 0.0 **** 0.06
29834 H 59.73553972889175 74.70031182294426 4.6487755530804975 H 0.0 **** 0.06
29835 H 59.3480715275858 72.96357864782632 4.679784160088147 H 0.0 **** 0.06
29836 C 286.2554287246346 116.77227577466627 268.48199988168307 C 0.0 **** -0.24
29837 H 287.0342964495852 116.51204771240484 267.76507954189606 H 0.0 **** 0.06
29838 H 285.498117690598 117.38279943074909 267.9898939840413 H 0.0 **** 0.06
29839 H 286.69428588254186 117.33232982507309 269.30744957933905 H 0.0 **** 0.06
29840 H 285.7960171943837 115.86079127560447 268.8647353058282 H 0.0 **** 0.06
29841 C 302.18406711427804 117.91027819203711 64.0139700206609 C 0.0 **** -0.24
29842 H 301.80795095102667 117.13733684929241 63.34404938317812 H 0.0 **** 0.06
29843 H 302.12255042326143 117.56010172343599 65.04422799142412 H 0.0 **** 0.06
29844 H 301.5843408119388 118.81335844749927 63.90013784250954 H 0.0 **** 0.06
29845 H 303.2228585663924 118.13195764115721 63.766962134296364 H 0.0 **** 0.06
29846 C 308.246269583076 233.98891449456067 1.223038147805795 C 0.0 **** -0.24
29847 H 309.10549514336196 234.32016658800973 1.805573840844957 H 0.0 **** 0.06
29848 H 308.1924040581294 232.89986009801686 1.244071033960907 H 0.0 **** 0.06
29849 H 308.35478868693843 234.32720054664824 0.19267874454688183 H 0.0 **** 0.06
29850 H 307.33540135355776 234.40729125867415 1.6490314494377998 H 0.0 **** 0.06
29851 C 202.86995849172388 302.7090177475184 25.494594892446713 C 0.0 **** -0.24
29852 H 203.0739356604114 302.4184787617621 26.52459623081353 H 0.0 **** 0.06
29853 H 201.9435103098245 303.2826867448342 25.456241259155604 H 0.0 **** 0.06
29854 H 202.77001745704428 301.8160962044174 24.877823252694895 H 0.0 **** 0.06
29855 H 203.6915204143491 303.31980453493964 25.120254328542984 H 0.0 **** 0.06
29856 C 234.66520674389625 75.79149404379964 19.948182049408274 C 0.0 **** -0.24
29857 H 235.46094528283 76.46316250055094 20.268862587674732 H 0.0 **** 0.06
29858 H 233.81444681175986 75.88765469262671 20.623360559911248 H 0.0 **** 0.06
29859 H 235.02883543177362 74.76415571659888 19.96548777299222 H 0.0 **** 0.06
29860 H 234.35664683516106 76.05056599044823 18.9359153581608 H 0.0 **** 0.06
29861 C 175.53724997489905 215.8859604969798 254.21710204931517 C 0.0 **** -0.24
29862 H 176.4932177185873 215.36155280007944 254.19147790350434 H 0.0 **** 0.06
29863 H 175.31953831415876 216.19344644945085 255.23986613318604 H 0.0 **** 0.06
29864 H 174.74929193514703 215.22200678334133 253.8605926569155 H 0.0 **** 0.06
29865 H 175.5892874665596 216.76611463902046 253.57631336718788 H 0.0 **** 0.06
29866 C 177.06769452826285 83.00742842247604 165.00983291364082 C 0.0 **** -0.24
29867 H 177.87383409735952 83.42804716408443 164.40780448880105 H 0.0 **** 0.06
29868 H 177.49177399592946 82.45540990935277 165.84856023279394 H 0.0 **** 0.06
29869 H 176.46906627817458 82.33445219779344 164.39677291281328 H 0.0 **** 0.06
29870 H 176.4386012809701 83.8137321842681 165.38640864046044 H 0.0 **** 0.06
29871 C 62.96069484931624 265.9071118452669 21.076951609640872 C 0.0 **** -0.24
29872 H 62.755696460271906 266.27253230485957 20.071402559737976 H 0.0 **** 0.06
29873 H 62.63788491243744 266.65181979734115 21.80607448757746 H 0.0 **** 0.06
29874 H 64.0302829512824 265.72933931705904 21.187985701719043 H 0.0 **** 0.06
29875 H 62.41833769571954 264.97635770604023 21.242661595306828 H 0.0 **** 0.06
29876 C 91.79958439130547 295.3565151727654 204.79564771813665 C 0.0 **** -0.24
29877 H 91.82046223238225 294.6485895816528 205.62348696447754 H 0.0 **** 0.06
29878 H 91.01997302763573 295.06769003544866 204.0909204584716 H 0.0 **** 0.06
29879 H 92.76558823299843 295.35447431490957 204.29057667025927 H 0.0 **** 0.06
29880 H 91.59183731286655 296.3566357449896 205.17768743857476 H 0.0 **** 0.06
29881 C 79.59432158411886 18.644394927374606 49.12492163677064 C 0.0 **** -0.24
29882 H 78.65423570328554 18.345343681956763 49.587935931193556 H 0.0 **** 0.06
29883 H 79.88637056678678 17.902042309672765 48.38235895847305 H 0.0 **** 0.06
29884 H 80.3688528460645 18.71798542782784 49.889505916338834 H 0.0 **** 0.06
29885 H 79.46926767825175 19.613256671423187 48.64123703674892 H 0.0 **** 0.06
29886 C 189.0922953423655 131.17292084080947 167.17715578163552 C 0.0 **** -0.24
29887 H 188.32443747269167 130.399098355417 167.20429261471247 H 0.0 **** 0.06
29888 H 189.16081546198427 131.64960204319235 168.15503582271674 H 0.0 **** 0.06
29889 H 188.83127056244678 131.91778931126433 166.4263406448972 H 0.0 **** 0.06
29890 H 190.05266773320562 130.7223770449369 166.92398683667165 H 0.0 **** 0.06
29891 C 277.6316970173232 265.5889104911085 67.12900031752454 C 0.0 **** -0.24
29892 H 278.15434634803086 264.63211479127824 67.15519232507853 H 0.0 **** 0.06
29893 H 277.6917757342063 266.0079305182511 66.12463578518577 H 0.0 **** 0.06
29894 H 278.09574945178764 266.2753254237362 67.83846788983743 H 0.0 **** 0.06
29895 H 276.586363460014 265.43935981699394 67.39914601823835 H 0.0 **** 0.06
29896 C 32.566823905943664 57.28852557743545 212.33202433467386 C 0.0 **** -0.24
29897 H 32.02323992135723 58.199933016186264 212.08337341137948 H 0.0 **** 0.06
29898 H 31.93374758842694 56.42255246936884 212.13382920182647 H 0.0 **** 0.06
29899 H 32.84121185242347 57.30479087618403 213.38604095580865 H 0.0 **** 0.06
29900 H 33.46891529091312 57.22610733050408 211.72274406329655 H 0.0 **** 0.06
29901 C 151.41461872063712 265.7105243392901 186.29398687954608 C 0.0 **** -0.24
29902 H 151.7046083856256 265.07571243133856 185.4575329480541 H 0.0 **** 0.06
29903 H 152.15341621712787 265.6213924108971 187.0904604250038 H 0.0 **** 0.06
29904 H 150.4384340562532 265.3991523973053 186.66589730582575 H 0.0 **** 0.06
29905 H 151.3630925419837 266.747919161178 185.9613363231581 H 0.0 **** 0.06
29906 C 127.90582897478507 294.64188505162195 202.30176302184213 C 0.0 **** -0.24
29907 H 128.7898537883603 295.2476819224157 202.50145436228894 H 0.0 **** 0.06
29908 H 128.18004890880763 293.58727422525686 202.30642988128164 H 0.0 **** 0.06
29909 H 127.49744900312393 294.9067855571989 201.32617915893246 H 0.0 **** 0.06
29910 H 127.15610034808856 294.8275616477973 203.07129374948408 H 0.0 **** 0.06
29911 C 127.05923714662543 97.6570531411833 83.13614186720409 C 0.0 **** -0.24
29912 H 127.02274921411103 98.67297826489494 82.74429480689068 H 0.0 **** 0.06
29913 H 126.65354432536398 96.96781615332799 82.39643107679063 H 0.0 **** 0.06
29914 H 126.46922106907874 97.59906240757186 84.05002394193153 H 0.0 **** 0.06
29915 H 128.09372046540997 97.38916260671272 83.35416544558689 H 0.0 **** 0.06
29916 C 28.774851815583105 90.12731198213902 65.01902932976827 C 0.0 **** -0.24
29917 H 27.92173658377388 90.33523978894829 65.66384850800995 H 0.0 **** 0.06
29918 H 28.51283425181302 90.35602158214971 63.98529915625062 H 0.0 **** 0.06
29919 H 29.044701430894037 89.07481563725389 65.1016064200349 H 0.0 **** 0.06
29920 H 29.61984406817305 90.74487161533114 65.325211542062 H 0.0 **** 0.06
29921 C 68.7545463556778 230.1829962436572 213.8985959493573 C 0.0 **** -0.24
29922 H 68.87219899523305 231.02943141692288 214.57560828767015 H 0.0 **** 0.06
29923 H 69.69872468999702 229.99382200599626 213.3860925455341 H 0.0 **** 0.06
29924 H 67.98139969545582 230.4096809354308 213.16453556919666 H 0.0 **** 0.06
29925 H 68.4671312461455 229.29943096534618 214.4686418285368 H 0.0 **** 0.06
29926 C 295.1743200549836 187.90359673340987 263.5001633727781 C 0.0 **** -0.24
29927 H 295.842278573166 187.6026475418094 262.69268869519425 H 0.0 **** 0.06
29928 H 295.76378577653475 188.20358989081427 264.36590040759415 H 0.0 **** 0.06
29929 H 294.53119817941024 187.06642468006277 263.77023660921986 H 0.0 **** 0.06
29930 H 294.5603306105213 188.74111767756938 263.16969858191067 H 0.0 **** 0.06
29931 C 191.28744158731638 95.9744502775296 215.68401062741918 C 0.0 **** -0.24
29932 H 190.52406707100118 96.75171942269711 215.64073965891896 H 0.0 **** 0.06
29933 H 191.82619011980614 95.9417991469584 214.7374213453366 H 0.0 **** 0.06
29934 H 190.8136556336222 95.00968839611494 215.8662405199756 H 0.0 **** 0.06
29935 H 191.98422253770934 96.19563712986468 216.49214306135312 H 0.0 **** 0.06
29936 C 217.0972176215917 178.37610990806775 174.457959653871 C 0.0 **** -0.24
29937 H 217.38463550083043 177.59123063573668 173.75797405198307 H 0.0 **** 0.06
29938 H 217.97822261224354 178.7180781367877 174.99993592760978 H 0.0 **** 0.06
29939 H 216.36455316053673 177.9830871182237 175.16345467730912 H 0.0 **** 0.06
29940 H 216.66106979728954 179.2098659375007 173.90800301245395 H 0.0 **** 0.06
29941 C 248.43143372080598 292.83126998024613 87.95890939212353 C 0.0 **** -0.24
29942 H 248.70588353780823 292.5516441841088 86.94120802772542 H 0.0 **** 0.06
29943 H 247.68039251542478 292.13670276227896 88.3353769710599 H 0.0 **** 0.06
29944 H 248.02479834110696 293.8425155639866 87.96008697159417 H 0.0 **** 0.06
29945 H 249.31472107064 292.79267540838066 88.59639293422259 H 0.0 **** 0.06
29946 C 288.33461280098675 247.425028600394 277.0955441939998 C 0.0 **** -0.24
29947 H 288.48429102756967 248.3281886621638 276.50322866573725 H 0.0 **** 0.06
29948 H 287.28082320318106 247.3337988315305 277.3599680309184 H 0.0 **** 0.06
29949 H 288.9340335023518 247.48370129248283 278.00391619211007 H 0.0 **** 0.06
29950 H 288.639848062922 246.55550623581178 276.5143319801365 H 0.0 **** 0.06
29951 C 124.40256276924862 187.7869331397523 46.81508628074593 C 0.0 **** -0.24
29952 H 125.36988887131886 187.310526153975 46.6566377254114 H 0.0 **** 0.06
29953 H 123.63795081555045 187.02054900519744 46.94948597281186 H 0.0 **** 0.06
29954 H 124.15437257397267 188.4003445481324 45.94937592647918 H 0.0 **** 0.06
29955 H 124.44810919452081 188.41412257968773 47.704400776017195 H 0.0 **** 0.06
29956 C 87.77458728119072 294.4871260298913 133.94755687024394 C 0.0 **** -0.24
29957 H 88.62346469552855 294.6960694598557 134.59806753529443 H 0.0 **** 0.06
29958 H 87.25403609933304 295.41754300931814 133.7184781370264 H 0.0 **** 0.06
29959 H 87.0912486018359 293.80272078551957 134.45033720093616 H 0.0 **** 0.06
29960 H 88.12896842010991 294.0326234683881 133.02271484202785 H 0.0 **** 0.06
29961 C 290.66957441125516 147.52939897380998 202.33878614757498 C 0.0 **** -0.24
29962 H 289.92571372351836 146.83788695701506 202.7323985843206 H 0.0 **** 0.06
29963 H 290.7279953257071 148.4064316749898 202.98418214416017 H 0.0 **** 0.06
29964 H 290.3831258925268 147.8367408454727 201.33312439085768 H 0.0 **** 0.06
29965 H 291.64140931999003 147.03769515406407 202.30463046576085 H 0.0 **** 0.06
29966 C 42.85959600662895 181.7277492259301 75.60470313739921 C 0.0 **** -0.24
29967 H 42.58717441836049 182.24099323248373 74.68272026551645 H 0.0 **** 0.06
29968 H 43.72821586243475 182.21527675652072 76.04940507268506 H 0.0 **** 0.06
29969 H 43.100399543941904 180.68718774809912 75.3842562666189 H 0.0 **** 0.06
29970 H 42.02333099578476 181.76719543997353 76.3035880945477 H 0.0 **** 0.06
29971 C 145.7606559532898 295.6680115697914 9.473932220450891 C 0.0 **** -0.24
29972 H 145.3167352224716 294.91064964247425 8.827889152664369 H 0.0 **** 0.06
29973 H 146.67551529650538 296.04499139380977 9.016856795721779 H 0.0 **** 0.06
29974 H 145.99354517182317 295.2252729033289 10.442615056727945 H 0.0 **** 0.06
29975 H 145.0561870108803 296.4886260653096 9.609511380740202 H 0.0 **** 0.06
29976 C 268.50768618881716 52.78438387147213 287.71971815352464 C 0.0 **** -0.24
29977 H 268.67586007975996 52.27524128968906 288.66833700245036 H 0.0 **** 0.06
29978 H 267.6688898522036 53.47389930563449 287.8216226553814 H 0.0 **** 0.06
29979 H 268.28182407581374 52.04902284327943 286.94790417904517 H 0.0 **** 0.06
29980 H 269.40409247579373 53.33902555323408 287.44194356057454 H 0.0 **** 0.06
29981 C 65.36812162609675 157.15269447373208 125.54392118787342 C 0.0 **** -0.24
29982 H 65.78065904034091 156.84882698966004 124.58234135256978 H 0.0 **** 0.06
29983 H 65.48103679153027 156.3391644675428 126.2611906272625 H 0.0 **** 0.06
29984 H 64.31084642375251 157.3901778985179 125.42752910080151 H 0.0 **** 0.06
29985 H 65.9010272109106 158.03202550060035 125.90674199236236 H 0.0 **** 0.06
29986 C 313.03065986889897 32.73777760836356 169.95772919834536 C 0.0 **** -0.24
29987 H 313.8751678270016 33.30430764528421 170.34833945129964 H 0.0 **** 0.06
29988 H 313.3501380560922 32.16301881984839 169.0877634645026 H 0.0 **** 0.06
29989 H 312.2350262683193 33.42417796710174 169.66813798504802 H 0.0 **** 0.06
29990 H 312.66188692035695 32.058261284851596 170.7267983977046 H 0.0 **** 0.06
29991 C 148.67967712416404 124.49185480339071 215.1715200693094 C 0.0 **** -0.24
29992 H 149.46191323168358 124.67394857416713 215.9088543784457 H 0.0 **** 0.06
29993 H 148.89581480231925 123.56966203003583 214.6327238741801 H 0.0 **** 0.06
29994 H 148.6437463813605 125.32435696397533 214.46822319868883 H 0.0 **** 0.06
29995 H 147.71850031348015 124.40169833738241 215.67744031941794 H 0.0 **** 0.06
29996 C 267.84020444897175 230.63337534767408 189.48725337670135 C 0.0 **** -0.24
29997 H 267.4343610175611 229.8396223023273 190.11416849109258 H 0.0 **** 0.06
29998 H 268.8692410578385 230.393025911136 189.21847994124732 H 0.0 **** 0.06
29999 H 267.8185471941522 231.5754542967149 190.03505130190536 H 0.0 **** 0.06
30000 H 267.2392803435 230.72501083422526 188.58288702185394 H 0.0 **** 0.06
30001 C 313.0320571327786 242.65318908057426 289.0204734658605 C 0.0 **** -0.24
30002 H 314.0918148643218 242.7959921326753 288.8056637930558 H 0.0 **** 0.06
30003 H 312.8750559233737 241.65180110351002 289.4210107156567 H 0.0 **** 0.06
30004 H 312.4568435941775 242.77198871997254 288.1027249290732 H 0.0 **** 0.06
30005 H 312.7078230012844 243.39278622997938 289.7523673332669 H 0.0 **** 0.06
30006 C 188.76940875639133 241.4642089086955 261.46872379928107 C 0.0 **** -0.24
30007 H 187.92049365847316 241.6244827445899 262.13304435596433 H 0.0 **** 0.06
30008 H 189.60556964143132 242.08334843485582 261.7921624595455 H 0.0 **** 0.06
30009 H 188.48868674259677 241.73390656430067 260.45036842041475 H 0.0 **** 0.06
30010 H 189.06071942487137 240.41399807538815 261.4996374360381 H 0.0 **** 0.06
30011 C 49.33475187481079 82.4377277978972 36.79104481585526 C 0.0 **** -0.24
30012 H 49.37388343628038 83.3433939959391 37.39660307910319 H 0.0 **** 0.06
30013 H 48.311643080021895 82.27353194496754 36.45067079739951 H 0.0 **** 0.06
30014 H 49.65985722874976 81.58722007248963 37.38936451554321 H 0.0 **** 0.06
30015 H 49.991417472040496 82.54874453888283 35.929333775266855 H 0.0 **** 0.06
30016 C 121.57776816988957 225.98997220806382 37.578997499770196 C 0.0 **** -0.24
30017 H 121.1890049624121 226.87890832550477 37.08083075668108 H 0.0 **** 0.06
30018 H 121.36693600094065 226.05245360918548 38.64720919553611 H 0.0 **** 0.06
30019 H 122.65422979278526 225.9280884920742 37.423423966624824 H 0.0 **** 0.06
30020 H 121.0983189162211 225.1031085960784 37.16497129824896 H 0.0 **** 0.06
30021 C 5.291367900446161 44.20466331787384 176.07234338391856 C 0.0 **** -0.24
30022 H 4.292742320024971 43.89860118764918 176.38454247717652 H 0.0 **** 0.06
30023 H 5.766617681814509 43.390472847774305 175.52513787033183 H 0.0 **** 0.06
30024 H 5.8879232771322165 44.4472901156243 176.9517006884936 H 0.0 **** 0.06
30025 H 5.217370015603393 45.08111408286331 175.42970996364596 H 0.0 **** 0.06
30026 C 206.70483371862196 266.48574660061854 58.917944678009604 C 0.0 **** -0.24
30027 H 206.92709536076876 267.01328717033186 57.98985897942859 H 0.0 **** 0.06
30028 H 206.19443434965018 267.15979912828095 59.604978897316414 H 0.0 **** 0.06
30029 H 207.6349478891214 266.14046633767146 59.37006470928753 H 0.0 **** 0.06
30030 H 206.0643624373405 265.62981598912603 58.70377960443588 H 0.0 **** 0.06
30031 C 0.6097044574630672 126.11019735098881 23.090436812332143 C 0.0 **** -0.24
30032 H 0.6466160796553595 125.23256555867167 22.445659086474677 H 0.0 **** 0.06
30033 H -0.0022776549796503787 125.89067518941016 23.966729729009955 H 0.0 **** 0.06
30034 H 0.17365973952985314 126.94504894461008 22.542246910583657 H 0.0 **** 0.06
30035 H 1.6189400439971564 126.37102510859373 23.40765244510223 H 0.0 **** 0.06
30036 C 124.48738507725267 221.16980631447325 116.52758151662283 C 0.0 **** -0.24
30037 H 123.40946360240261 221.30154799569536 116.43963398404338 H 0.0 **** 0.06
30038 H 124.77816981429524 220.2290697725982 116.05939848801145 H 0.0 **** 0.06
30039 H 124.76576204830542 221.15353711932806 117.58184568195398 H 0.0 **** 0.06
30040 H 124.99550966214306 221.99652598102983 116.03102200391353 H 0.0 **** 0.06
30041 C 309.41164154787026 174.41250885697013 162.14307996870036 C 0.0 **** -0.24
30042 H 309.3373419709841 174.73259846122602 161.1034105156475 H 0.0 **** 0.06
30043 H 309.74235585131555 175.2501425913885 162.75758556568871 H 0.0 **** 0.06
30044 H 310.1308985291923 173.59784632878353 162.22067317126238 H 0.0 **** 0.06
30045 H 308.4361559687985 174.07091876726793 162.4878573478756 H 0.0 **** 0.06
30046 C 311.24119741612736 28.269342421398505 32.59104708559346 C 0.0 **** -0.24
30047 H 311.7139367534503 28.32814002450209 31.61068046510931 H 0.0 **** 0.06
30048 H 310.45331363236807 27.515607196898827 32.570269453065606 H 0.0 **** 0.06
30049 H 310.81023737159194 29.238647928311963 32.844806087987905 H 0.0 **** 0.06
30050 H 311.98645452106155 27.997014558846672 33.337373908026734 H 0.0 **** 0.06
30051 C 97.6592755773795 143.27874457814295 213.59182588158222 C 0.0 **** -0.24
30052 H 98.0523449403106 143.25429548039892 214.60918033138427 H 0.0 **** 0.06
30053 H 98.16525244327315 144.0618088359839 213.0261040998277 H 0.0 **** 0.06
30054 H 96.58905198084645 143.48590898031438 213.62155328792136 H 0.0 **** 0.06
30055 H 97.83052297620986 142.31493837803956 213.11272434166165 H 0.0 **** 0.06
30056 C 136.54762247430529 131.75933824025475 169.32494851809497 C 0.0 **** -0.24
30057 H 135.5513645795923 131.3928306603388 169.07681598800133 H 0.0 **** 0.06
30058 H 137.05487119486602 132.0778135799944 168.41365572855295 H 0.0 **** 0.06
30059 H 137.11964586564773 130.96251429932897 169.79948112323865 H 0.0 **** 0.06
30060 H 136.46363268091963 132.60419706402323 170.00881739026084 H 0.0 **** 0.06
30061 C 82.68128893076067 310.77364636285927 6.012029087562269 C 0.0 **** -0.24
30062 H 82.03257302422529 311.57291875738656 6.369828836075044 H 0.0 **** 0.06
30063 H 83.7012128323718 310.95339442018053 6.354079123787642 H 0.0 **** 0.06
30064 H 82.66316331920262 310.7513882385142 4.922252326222747 H 0.0 **** 0.06
30065 H 82.32995197876258 309.81858577255974 6.40171609267054 H 0.0 **** 0.06
30066 C 255.34931389818388 176.25412031701552 166.19903886195527 C 0.0 **** -0.24
30067 H 255.69795394875888 175.49106573418408 165.50139914153544 H 0.0 **** 0.06
30068 H 254.44801500298996 175.9019783114759 166.7009289495299 H 0.0 **** 0.06
30069 H 255.12707663270615 177.1704831483906 165.65255637598102 H 0.0 **** 0.06
30070 H 256.1246951212987 176.45084235439862 166.9383890779012 H 0.0 **** 0.06
30071 C 99.01643148253757 280.1083579330783 209.2636374513592 C 0.0 **** -0.24
30072 H 98.13371889525735 280.3395237219019 209.85864182926986 H 0.0 **** 0.06
30073 H 99.45224101794275 279.170348902721 209.6090002491532 H 0.0 **** 0.06
30074 H 99.74798151178044 280.9099437823397 209.3718642356854 H 0.0 **** 0.06
30075 H 98.73343113305901 280.01390944101803 208.21549307566698 H 0.0 **** 0.06
30076 C 304.84236186762416 83.76257164485548 129.54942727619516 C 0.0 **** -0.24
30077 H 304.85801114064304 84.20594305128023 128.554347761169 H 0.0 **** 0.06
30078 H 305.6438347828895 83.02876373525038 129.6330123619682 H 0.0 **** 0.06
30079 H 303.8824312550339 83.2730056139174 129.7143990054484 H 0.0 **** 0.06
30080 H 304.98540643301385 84.54376830209566 130.29718217782928 H 0.0 **** 0.06
30081 C 28.529330970364242 128.33499572191334 255.97133629980556 C 0.0 **** -0.24
30082 H 28.355076332983913 129.1854155657564 256.6286457774316 H 0.0 **** 0.06
30083 H 28.818607090121162 128.69272648834226 254.98281195588856 H 0.0 **** 0.06
30084 H 27.61681449522797 127.7438400870983 255.8919634483783 H 0.0 **** 0.06
30085 H 29.327842588285108 127.71577785631928 256.3817650844004 H 0.0 **** 0.06
30086 C 220.0601772592566 158.04367186410457 262.20783386362956 C 0.0 **** -0.24
30087 H 220.7120293765264 157.1716380055725 262.24945251509916 H 0.0 **** 0.06
30088 H 219.40969603579398 157.96898842967096 261.3362847179237 H 0.0 **** 0.06
30089 H 220.66620496705463 158.9466620728861 262.13303111728953 H 0.0 **** 0.06
30090 H 219.45333464143266 158.0862394898208 263.1119784216927 H 0.0 **** 0.06
30091 C 165.57891097142914 217.55013524876324 230.4347771159154 C 0.0 **** -0.24
30092 H 165.59231779337318 218.57917926642128 230.0742899162657 H 0.0 **** 0.06
30093 H 165.4479782389838 216.87183066664107 229.5905532879368 H 0.0 **** 0.06
30094 H 164.75388270162472 217.42181521873505 231.1353923265655 H 0.0 **** 0.06
30095 H 166.5205410654582 217.3286831124286 230.93583805160551 H 0.0 **** 0.06
30096 C 22.257473492924788 304.2695200457573 207.79265940477467 C 0.0 **** -0.24
30097 H 23.018456089176908 304.3713881777075 208.56623468933384 H 0.0 **** 0.06
30098 H 21.785268271292153 303.29050367196646 207.87439384417374 H 0.0 **** 0.06
30099 H 22.72015524346162 304.3698325160001 206.81156137215157 H 0.0 **** 0.06
30100 H 21.50440922766424 305.0477705904056 207.92098187838948 H 0.0 **** 0.06
30101 C 197.39090663538082 179.34091778727992 178.6337929306809 C 0.0 **** -0.24
30102 H 198.18178551779766 178.95481825294212 179.27596275841944 H 0.0 **** 0.06
30103 H 196.87088961982403 178.50918129483813 178.15744949876023 H 0.0 **** 0.06
30104 H 197.82570334193315 179.98366274308455 177.86817024501704 H 0.0 **** 0.06
30105 H 196.68519339071156 179.91623458770448 179.2326165634587 H 0.0 **** 0.06
30106 C 206.38356818035442 26.87094933151306 205.57777731278952 C 0.0 **** -0.24
30107 H 207.07337658011988 27.670378169444177 205.31039510126112 H 0.0 **** 0.06
30108 H 206.07993537547128 26.98532944055478 206.61886408393588 H 0.0 **** 0.06
30109 H 206.87626068502016 25.90707468069948 205.44699081913632 H 0.0 **** 0.06
30110 H 205.50437217565167 26.919647035044477 204.93471411802454 H 0.0 **** 0.06
30111 C 165.50527845877707 102.77707527633433 70.56671805180639 C 0.0 **** -0.24
30112 H 165.28941806164727 102.93894857690276 71.62277802797738 H 0.0 **** 0.06
30113 H 164.57641300263236 102.80177774588083 69.99772411681602 H 0.0 **** 0.06
30114 H 165.98404968510357 101.80562924493867 70.4387529148319 H 0.0 **** 0.06
30115 H 166.17293540412567 103.56056825249405 70.20807016004346 H 0.0 **** 0.06
30116 C 241.73614195893862 260.1789283179788 36.19112334527421 C 0.0 **** -0.24
30117 H 240.78045001622837 260.6936552570602 36.29526000267697 H 0.0 **** 0.06
30118 H 241.59436873956076 259.1121535348407 36.36476454711203 H 0.0 **** 0.06
30119 H 242.44369011040865 260.57508627119756 36.92002240742369 H 0.0 **** 0.06
30120 H 242.1246760231261 260.3347052759684 35.184719763138446 H 0.0 **** 0.06
30121 C 296.92229473981763 58.87495669004116 23.96225751537858 C 0.0 **** -0.24
30122 H 296.0799987738476 58.38319669510503 23.47633060735808 H 0.0 **** 0.06
30123 H 296.6373973596342 59.167388186344624 24.973534262047565 H 0.0 **** 0.06
30124 H 297.20271867913226 59.761380748740265 23.39393529243992 H 0.0 **** 0.06
30125 H 297.7678368945958 58.18960286486998 24.00643830314104 H 0.0 **** 0.06
30126 C 234.9327190454328 127.90153886909852 78.12804257741189 C 0.0 **** -0.24
30127 H 234.66365519078934 126.85987517196355 78.30393668039622 H 0.0 **** 0.06
30128 H 234.0290642805188 128.48720278226264 77.96047708373845 H 0.0 **** 0.06
30129 H 235.57589715932966 127.96632167631384 77.25026501285922 H 0.0 **** 0.06
30130 H 235.46324281829624 128.29090794121754 78.99670511255164 H 0.0 **** 0.06
30131 C 130.5164359927054 136.80380229634747 62.478005051598416 C 0.0 **** -0.24
30132 H 129.73893454825532 136.2417801419514 62.99501273999357 H 0.0 **** 0.06
30133 H 131.42688872278217 136.80048684565304 63.0783001368427 H 0.0 **** 0.06
30134 H 130.1832791540274 137.8305450671173 62.32682253534483 H 0.0 **** 0.06
30135 H 130.71616825707338 136.34073944201705 61.51171722432565 H 0.0 **** 0.06
30136 C 180.61739052384246 154.1480798387201 134.8749821172167 C 0.0 **** -0.24
30137 H 181.66392456438746 154.38916087880722 134.68704386510282 H 0.0 **** 0.06
30138 H 179.98112537781327 154.83547229039795 134.3181180150517 H 0.0 **** 0.06
30139 H 180.4100421028137 154.24267043332088 135.9407182946985 H 0.0 **** 0.06
30140 H 180.4164475528035 153.12577513883315 134.55476442162714 H 0.0 **** 0.06
30141 C 255.44094162893975 210.44049031828837 160.1997911794656 C 0.0 **** -0.24
30142 H 254.50967801574814 210.7461048044325 159.72365441844545 H 0.0 **** 0.06
30143 H 256.07371182974 209.9359260054761 159.46923585656253 H 0.0 **** 0.06
30144 H 255.22115522005518 209.76006908564096 161.0227086918805 H 0.0 **** 0.06
30145 H 255.9583591384016 211.3202300032595 160.58321856519626 H 0.0 **** 0.06
30146 C 122.99121672120634 304.51631652807646 14.52400246803849 C 0.0 **** -0.24
30147 H 123.61464361069818 303.9931129144412 15.248652203743802 H 0.0 **** 0.06
30148 H 122.87503261661598 303.89904105789 13.632549383067769 H 0.0 **** 0.06
30149 H 123.46330905936097 305.46099867682835 14.253880620084487 H 0.0 **** 0.06
30150 H 122.01182049304882 304.71085303383114 14.961566095452994 H 0.0 **** 0.06
30151 C 211.42839002755815 292.8000661481036 44.30367104763002 C 0.0 **** -0.24
30152 H 210.94314443923832 293.0772506759557 45.239826915575236 H 0.0 **** 0.06
30153 H 211.5048696994097 291.71472395690245 44.2414011841654 H 0.0 **** 0.06
30154 H 212.4264205744218 293.23709109650497 44.26967733595188 H 0.0 **** 0.06
30155 H 210.8398961012574 293.1732140357146 43.465863253535304 H 0.0 **** 0.06
30156 C 77.41432338294752 174.91280177068882 138.14576933311494 C 0.0 **** -0.24
30157 H 76.64600803613328 174.21866275027497 138.48693923224903 H 0.0 **** 0.06
30158 H 78.36454417270392 174.66398834637062 138.6181067969695 H 0.0 **** 0.06
30159 H 77.12922656409305 175.92960610021981 138.41579175659396 H 0.0 **** 0.06
30160 H 77.51550775799691 174.83950785196447 137.0630523466903 H 0.0 **** 0.06
30161 C 300.9315482930575 289.0278705743932 167.48262206235887 C 0.0 **** -0.24
30162 H 301.0735941992291 287.9484694520772 167.52997736860857 H 0.0 **** 0.06
30163 H 301.5680119667182 289.51033564835626 168.22449253288153 H 0.0 **** 0.06
30164 H 299.88826745625664 289.26650219218544 167.6884749101227 H 0.0 **** 0.06
30165 H 301.19663959755064 289.3863276269907 166.4884784675541 H 0.0 **** 0.06
30166 C 44.31828737085635 180.2536664947745 47.4743395105549 C 0.0 **** -0.24
30167 H 44.70391852759232 181.1336391366537 46.96025478306791 H 0.0 **** 0.06
30168 H 44.42395301657086 180.38683710101662 48.5511935920093 H 0.0 **** 0.06
30169 H 44.87925953525132 179.3738911941693 47.159498280907826 H 0.0 **** 0.06
30170 H 43.264843700715005 180.12106876379096 47.226247533661564 H 0.0 **** 0.06
30171 C 57.491251373028575 219.45147910631655 178.13133860656177 C 0.0 **** -0.24
30172 H 57.48956710527503 220.48845182855126 178.46689647888422 H 0.0 **** 0.06
30173 H 57.872280389276256 219.40150623990573 177.1108960774069 H 0.0 **** 0.06
30174 H 56.474365470279 219.0600447196545 178.15900684472035 H 0.0 **** 0.06
30175 H 58.12779625189711 218.85848205470984 178.78791416437684 H 0.0 **** 0.06
30176 C 307.6069648308113 161.56256435774816 152.32330771413643 C 0.0 **** -0.24
30177 H 307.12677537670436 160.6515381355252 151.96741776414945 H 0.0 **** 0.06
30178 H 307.656880576385 162.28769258835956 151.51153692522706 H 0.0 **** 0.06
30179 H 308.61484234736804 161.3307657782887 152.66762541644192 H 0.0 **** 0.06
30180 H 307.0280475874467 161.97967126448526 153.1483616587006 H 0.0 **** 0.06
30181 C 210.34041280285948 219.77997643445366 199.49898240847756 C 0.0 **** -0.24
30182 H 209.89465585661554 220.30226428990244 200.34567626820007 H 0.0 **** 0.06
30183 H 211.2680042380863 219.30185583624038 199.8146739912425 H 0.0 **** 0.06
30184 H 210.5514469144686 220.49400525122167 198.70204212919987 H 0.0 **** 0.06
30185 H 209.64665184309789 219.02212033391004 199.1332403990752 H 0.0 **** 0.06
30186 C 58.32794994991218 32.21575700029672 112.41226947711084 C 0.0 **** -0.24
30187 H 58.220128799766684 33.25745624195014 112.11185703638381 H 0.0 **** 0.06
30188 H 58.201914502402445 32.13561440660533 113.49290243490572 H 0.0 **** 0.06
30189 H 59.31986955510973 31.85889575230658 112.13513973089675 H 0.0 **** 0.06
30190 H 57.57055503160868 31.612669142884442 111.91233616128079 H 0.0 **** 0.06
30191 C 273.51939499937737 177.30653526714707 177.52910810901682 C 0.0 **** -0.24
30192 H 273.64694572510155 177.01232269249755 176.48705814576635 H 0.0 **** 0.06
30193 H 272.92538093719503 176.55447164795703 178.0479982271985 H 0.0 **** 0.06
30194 H 273.00782180250263 178.2688188976827 177.57435671095584 H 0.0 **** 0.06
30195 H 274.49661319913605 177.3913802459137 178.00512100008336 H 0.0 **** 0.06
30196 C 160.50817137524837 193.69088036205113 287.71175552842726 C 0.0 **** -0.24
30197 H 159.53679757809306 193.71833842753284 287.218644640314 H 0.0 **** 0.06
30198 H 161.2568741839301 193.30565262697786 287.019014559743 H 0.0 **** 0.06
30199 H 160.45351140007847 193.04158088868968 288.5859190336231 H 0.0 **** 0.06
30200 H 160.78550233889172 194.69794950500403 288.02344388002876 H 0.0 **** 0.06
30201 C 242.09315927199054 160.02914286328837 272.57932189557977 C 0.0 **** -0.24
30202 H 241.4584063819649 160.6461603642431 271.9433741604388 H 0.0 **** 0.06
30203 H 242.13418997151462 160.46255876033052 273.5787965043316 H 0.0 **** 0.06
30204 H 243.09824215586363 159.98836845475125 272.15881720275416 H 0.0 **** 0.06
30205 H 241.68157980505518 159.02159188901118 272.6355866701726 H 0.0 **** 0.06
30206 C 34.68112028562476 295.3288708757888 60.112639816614376 C 0.0 **** -0.24
30207 H 33.76428930030869 294.74016546176455 60.09392546098866 H 0.0 **** 0.06
30208 H 35.41971698919173 294.83176414362265 60.7431112001093 H 0.0 **** 0.06
30209 H 34.468891748601465 296.319941566594 60.51387202432289 H 0.0 **** 0.06
30210 H 35.07280960076116 295.422908260412 59.09965077322403 H 0.0 **** 0.06
30211 C 124.4812510071074 300.7534412478934 16.577777848957197 C 0.0 **** -0.24
30212 H 123.69117319195556 301.2653912236299 16.030106770671708 H 0.0 **** 0.06
30213 H 124.44893287135156 299.68668467820396 16.34981003973934 H 0.0 **** 0.06
30214 H 124.33603244003203 300.90058558272074 17.647906094355477 H 0.0 **** 0.06
30215 H 125.44931405061237 301.15869592830245 16.283239332166417 H 0.0 **** 0.06
30216 C 92.23200703494891 85.6309466636408 59.921511976074754 C 0.0 **** -0.24
30217 H 91.69790768845351 86.51237239478675 59.56868778191327 H 0.0 **** 0.06
30218 H 93.20840791983747 85.58074580927104 59.43895261285388 H 0.0 **** 0.06
30219 H 91.65900306116177 84.7368743732545 59.67589533334433 H 0.0 **** 0.06
30220 H 92.36237485292946 85.69424482457177 61.00168461196506 H 0.0 **** 0.06
30221 C 33.5949265828869 97.27390095662565 83.61630618435774 C 0.0 **** -0.24
30222 H 34.219006264995414 96.93342081198554 82.78958181982813 H 0.0 **** 0.06
30223 H 33.87177250420038 98.29399982419557 83.88305323216332 H 0.0 **** 0.06
30224 H 33.74277407120391 96.61977820531396 84.47567507896701 H 0.0 **** 0.06
30225 H 32.54811844210718 97.247153316317 83.31502454463651 H 0.0 **** 0.06
30226 C 73.25190399534239 8.842664788932979 282.5129523192839 C 0.0 **** -0.24
30227 H 72.92418053783342 8.961203772814684 281.47988639823257 H 0.0 **** 0.06
30228 H 74.3097964636936 9.090592768384738 282.58865294276086 H 0.0 **** 0.06
30229 H 73.09618248881617 7.810816597832286 282.82675236683366 H 0.0 **** 0.06
30230 H 72.67485346605139 9.508123400628975 283.1544637138512 H 0.0 **** 0.06
30231 C 151.7544086969874 299.29249883950786 106.71666835558938 C 0.0 **** -0.24
30232 H 150.8664754742523 299.1994743484394 107.34155265169582 H 0.0 **** 0.06
30233 H 151.51380168538174 298.993782353492 105.69622233625282 H 0.0 **** 0.06
30234 H 152.54345332484513 298.6491860640378 107.10756041642784 H 0.0 **** 0.06
30235 H 152.09468204753733 300.3287039672215 106.72160156762493 H 0.0 **** 0.06
30236 C 162.40062815437796 47.06576726615802 84.7150095158797 C 0.0 **** -0.24
30237 H 161.82670894252686 47.415318156984654 83.85700411886273 H 0.0 **** 0.06
30238 H 162.48962676633215 45.9792135780275 84.67375797817829 H 0.0 **** 0.06
30239 H 161.891580323568 47.3536887392913 85.63451692671742 H 0.0 **** 0.06
30240 H 163.39464328523434 47.51245777001708 84.6952899110741 H 0.0 **** 0.06
30241 C 39.72635958234494 258.4702442715916 11.31926868155017 C 0.0 **** -0.24
30242 H 39.98299378847011 257.4998889910803 10.892626126301153 H 0.0 **** 0.06
30243 H 38.6636033525713 258.6622152485022 11.170397288457465 H 0.0 **** 0.06
30244 H 40.309242043472665 259.2487211983862 10.825579439996545 H 0.0 **** 0.06
30245 H 39.95090869237137 258.4688544636747 12.385215729531254 H 0.0 **** 0.06
30246 C 75.7095423057826 262.76063718832 45.78821082742846 C 0.0 **** -0.24
30247 H 76.31710422883557 262.3001502837435 46.567432664583464 H 0.0 **** 0.06
30248 H 76.19796373788327 263.66993029173034 45.437032938935744 H 0.0 **** 0.06
30249 H 74.72783298151262 263.0065500831116 46.19133363079891 H 0.0 **** 0.06
30250 H 75.59708385227762 262.0642756873086 44.956965311329355 H 0.0 **** 0.06
30251 C 228.06445514344094 33.86829426468802 8.725490280203474 C 0.0 **** -0.24
30252 H 228.26363272412226 34.285401369922056 7.73818014375226 H 0.0 **** 0.06
30253 H 227.81993206194454 32.81112662141467 8.630078649102643 H 0.0 **** 0.06
30254 H 227.22682367468855 34.39601283345303 9.1813992448714 H 0.0 **** 0.06
30255 H 228.94941234497014 33.981657708990696 9.352490946492665 H 0.0 **** 0.06
30256 C 81.73217601108189 93.43603141856192 29.84252498823065 C 0.0 **** -0.24
30257 H 80.82194110897004 93.44253441483477 30.440493612077375 H 0.0 **** 0.06
30258 H 82.60044545442923 93.49086828369917 30.499834995573707 H 0.0 **** 0.06
30259 H 81.7309752130962 94.29466703588838 29.169848400185174 H 0.0 **** 0.06
30260 H 81.77613072957806 92.51709245431613 29.257220352569504 H 0.0 **** 0.06
30261 C 298.70213691184836 17.544638481221682 182.2543686955101 C 0.0 **** -0.24
30262 H 297.99187911764363 17.611807154395706 181.4292786443753 H 0.0 **** 0.06
30263 H 298.25972253653276 16.967771209005264 183.06731950984204 H 0.0 **** 0.06
30264 H 298.9414688104972 18.54804447203412 182.60865109228223 H 0.0 **** 0.06
30265 H 299.61182033064256 17.053799127236175 181.91159158663464 H 0.0 **** 0.06
30266 C 173.62320260795548 296.4321877865653 109.68866217293012 C 0.0 **** -0.24
30267 H 173.9501633159096 295.6160719348632 109.04537844395682 H 0.0 **** 0.06
30268 H 173.94433450157976 296.23877425384387 110.71268798655797 H 0.0 **** 0.06
30269 H 172.535741835836 296.50637370537356 109.65689941312732 H 0.0 **** 0.06
30270 H 174.06071994611 297.3676533818735 109.34043085999437 H 0.0 **** 0.06
30271 C 304.88247508722037 147.04096287289346 250.6183280881947 C 0.0 **** -0.24
30272 H 304.48981910416245 146.0307894495864 250.73601107526977 H 0.0 **** 0.06
30273 H 305.94531817624477 146.99311101394147 250.38405663918272 H 0.0 **** 0.06
30274 H 304.7385826092889 147.59667413689175 251.5443984372537 H 0.0 **** 0.06
30275 H 304.3533753771331 147.54346418533186 249.80779907352672 H 0.0 **** 0.06
30276 C 92.4788778324004 150.76857125981644 96.96275908332973 C 0.0 **** -0.24
30277 H 91.77841236376923 151.10430017398528 97.72757316159044 H 0.0 **** 0.06
30278 H 92.25331575256956 149.73693345384055 96.69161790620785 H 0.0 **** 0.06
30279 H 93.49628269547378 150.8290690793275 97.35041319801144 H 0.0 **** 0.06
30280 H 92.38789472053455 151.40476171543276 96.08191906888356 H 0.0 **** 0.06
30281 C 245.59636007347314 141.3458761096995 58.9452113500752 C 0.0 **** -0.24
30282 H 245.92881618192132 140.3403959651827 59.203259727123225 H 0.0 **** 0.06
30283 H 244.53678374406368 141.45074737341312 59.18229019406323 H 0.0 **** 0.06
30284 H 245.74835499815555 141.5169410009849 57.87920164155315 H 0.0 **** 0.06
30285 H 246.17062993764614 142.07593535907964 59.51604141915564 H 0.0 **** 0.06
30286 C 264.0129317783239 213.36285479257066 158.6154068504398 C 0.0 **** -0.24
30287 H 264.2406931788848 213.2578484935214 159.67624509084806 H 0.0 **** 0.06
30288 H 262.95983837458607 213.61748351094897 158.49344844981795 H 0.0 **** 0.06
30289 H 264.22174641040687 212.42338697722386 158.10421606348115 H 0.0 **** 0.06
30290 H 264.6299255329704 214.15384957526234 158.18839009069586 H 0.0 **** 0.06
30291 C 209.9045661713128 114.7874949395744 234.42763361352905 C 0.0 **** -0.24
30292 H 210.42014778468473 114.66061801896305 233.4751457124765 H 0.0 **** 0.06
30293 H 208.91846361638486 114.32636054832307 234.37134707160624 H 0.0 **** 0.06
30294 H 209.79718461854864 115.85111692112369 234.64298411240753 H 0.0 **** 0.06
30295 H 210.4841014297762 114.31402078155162 235.21911605081561 H 0.0 **** 0.06
30296 C 191.44129485418102 215.1950689433271 41.08503567354575 C 0.0 **** -0.24
30297 H 191.9877164084116 214.89778256092876 40.189585705689524 H 0.0 **** 0.06
30298 H 190.90783338305283 214.33392247111982 41.487521651412465 H 0.0 **** 0.06
30299 H 190.7287937934194 215.97967479363615 40.8312104459489 H 0.0 **** 0.06
30300 H 192.142940017025 215.56828027864077 41.83073247022895 H 0.0 **** 0.06
30301 C 138.0808304988052 303.86888036996083 56.14069580917433 C 0.0 **** -0.24
30302 H 137.37984195279194 303.45653840992986 55.41434980327145 H 0.0 **** 0.06
30303 H 139.07339411593486 303.45504143515643 55.961642315083765 H 0.0 **** 0.06
30304 H 137.7547642650795 303.6097182662768 57.14752159402303 H 0.0 **** 0.06
30305 H 138.11474672962984 304.9532470699195 56.036317179557244 H 0.0 **** 0.06
30306 C 199.584818532646 154.26577950765147 243.24097713257535 C 0.0 **** -0.24
30307 H 200.34578446582157 153.49037786617492 243.32892309696817 H 0.0 **** 0.06
30308 H 200.0676784855504 155.24038679468305 243.16653753342018 H 0.0 **** 0.06
30309 H 198.94194276261055 154.24444013893896 244.1205535774735 H 0.0 **** 0.06
30310 H 198.98599659490026 154.08775218742352 242.3485613641714 H 0.0 **** 0.06
30311 C 69.96787633486309 159.01080118203578 293.1887810294522 C 0.0 **** -0.24
30312 H 70.02864791087521 159.8532633125448 293.8773677863893 H 0.0 **** 0.06
30313 H 70.08893017354481 159.36775029238487 292.16616983777544 H 0.0 **** 0.06
30314 H 68.99780112277048 158.52552661364405 293.2928676414875 H 0.0 **** 0.06
30315 H 70.75767467830741 158.29632001513698 293.42029471739363 H 0.0 **** 0.06
30316 C 41.53095094203721 216.33484540339504 80.65069090253024 C 0.0 **** -0.24
30317 H 40.44821398940695 216.2695591619219 80.54143546835186 H 0.0 **** 0.06
30318 H 41.866489114979686 217.32885072669228 80.3527682489842 H 0.0 **** 0.06
30319 H 42.00537731893621 215.58612114747865 80.01546577999841 H 0.0 **** 0.06
30320 H 41.80283579839329 216.15607596599895 81.6905036061078 H 0.0 **** 0.06
30321 C 100.42975352716556 299.5774090678185 179.8448380065239 C 0.0 **** -0.24
30322 H 100.18088748156529 299.5155954896605 178.78565713402463 H 0.0 **** 0.06
30323 H 99.5199277303179 299.7431966888571 180.42194963788324 H 0.0 **** 0.06
30324 H 101.11997002519004 300.40460994288776 180.00816052371545 H 0.0 **** 0.06
30325 H 100.89666020306444 298.6448362327962 180.1628197929365 H 0.0 **** 0.06
30326 C 158.01777686755167 294.40284936759986 110.5251498820243 C 0.0 **** -0.24
30327 H 157.05674904298343 294.6466978705705 110.07168568224117 H 0.0 **** 0.06
30328 H 158.76766594183914 295.1218708641577 110.19398554560814 H 0.0 **** 0.06
30329 H 158.31683908190007 293.3990266458377 110.22316132920653 H 0.0 **** 0.06
30330 H 157.92832195047333 294.44468520849347 111.61039774658096 H 0.0 **** 0.06
30331 C 83.47404370684558 49.212791430728345 34.43386949486461 C 0.0 **** -0.24
30332 H 84.1206213680579 49.98630700271889 34.849433379559855 H 0.0 **** 0.06
30333 H 83.53271061763769 48.31856138218288 35.05437426024176 H 0.0 **** 0.06
30334 H 83.79762754654556 48.975313905686534 33.420002995817015 H 0.0 **** 0.06
30335 H 82.4450310297994 49.573926477768026 34.41111546492962 H 0.0 **** 0.06
30336 C 87.34532701842477 311.77171580538106 96.00009214285677 C 0.0 **** -0.24
30337 H 87.64141147737007 312.0181883810575 94.98052281622722 H 0.0 **** 0.06
30338 H 88.02168219124292 312.2579087606406 96.70287051386393 H 0.0 **** 0.06
30339 H 87.39063993728053 310.6916446685625 96.13981124983243 H 0.0 **** 0.06
30340 H 86.32688244764029 312.11819296126987 96.17635214317684 H 0.0 **** 0.06
30341 C 201.82263887974892 16.708005522480136 179.19178261928414 C 0.0 **** -0.24
30342 H 201.14222821561975 17.433327318978513 179.63769737419767 H 0.0 **** 0.06
30343 H 202.61833482164667 17.232915547984476 178.66258626077865 H 0.0 **** 0.06
30344 H 201.27510845677392 16.0780067791451 178.492010969783 H 0.0 **** 0.06
30345 H 202.25700671937585 16.087880186506723 179.9767020438415 H 0.0 **** 0.06
30346 C 247.734972385724 24.95772402708124 249.1525558799198 C 0.0 **** -0.24
30347 H 247.8338535577409 24.07812210795322 249.7888021596387 H 0.0 **** 0.06
30348 H 247.03188970947446 25.656787882050452 249.60589882838588 H 0.0 **** 0.06
30349 H 247.3671013141057 24.655813163659104 248.1714253791041 H 0.0 **** 0.06
30350 H 248.7065667093874 25.439356101607075 249.04377461505777 H 0.0 **** 0.06
30351 C 97.61784808704112 183.49317613520924 45.16679097578995 C 0.0 **** -0.24
30352 H 98.61853419415709 183.86381962421285 44.94321532444252 H 0.0 **** 0.06
30353 H 97.12650288982732 183.19255929968637 44.24169381168619 H 0.0 **** 0.06
30354 H 97.03889218464224 184.27988159750896 45.64893610089021 H 0.0 **** 0.06
30355 H 97.69084229182454 182.6341179637045 45.834791919223306 H 0.0 **** 0.06
30356 C 104.55315025632368 90.05468685392273 144.60093250357173 C 0.0 **** -0.24
30357 H 103.55940305565935 90.36282524408696 144.27387350325262 H 0.0 **** 0.06
30358 H 104.64189847422392 90.20057739757465 145.67804998027387 H 0.0 **** 0.06
30359 H 105.30578056350515 90.65523098173745 144.08919064953182 H 0.0 **** 0.06
30360 H 104.70359434768378 89.00162555639005 144.36251306148682 H 0.0 **** 0.06
30361 C 151.18581412764638 172.51885788798995 42.31174546272433 C 0.0 **** -0.24
30362 H 150.87786875760378 171.9141589725421 41.4584792541458 H 0.0 **** 0.06
30363 H 150.9545264795617 171.98821598257928 43.23499815790626 H 0.0 **** 0.06
30364 H 150.65160467693738 173.46866174140143 42.29357263780366 H 0.0 **** 0.06
30365 H 152.25815805175648 172.70422150671067 42.256971531673 H 0.0 **** 0.06
30366 C 109.48994553086598 174.28760180643815 65.93389936494981 C 0.0 **** -0.24
30367 H 109.26107487273785 173.22813168883062 65.81370931919611 H 0.0 **** 0.06
30368 H 108.56218252955807 174.85927865982808 65.96289488151214 H 0.0 **** 0.06
30369 H 110.09841238189236 174.62435615302581 65.09527254334205 H 0.0 **** 0.06
30370 H 110.03848107730306 174.4365438659667 66.86440426595556 H 0.0 **** 0.06
30371 C 213.5941399518913 187.6263049865036 80.03393581637212 C 0.0 **** -0.24
30372 H 214.00597828896508 188.6320138369129 79.94637872025973 H 0.0 **** 0.06
30373 H 212.5981218322956 187.60269717214862 79.59306631027718 H 0.0 **** 0.06
30374 H 213.53231521450687 187.35027552643203 81.08685689198035 H 0.0 **** 0.06
30375 H 214.24113205882088 186.9226568279559 79.51051454184801 H 0.0 **** 0.06
30376 C 57.17440414156982 93.29626898845751 217.34894875509323 C 0.0 **** -0.24
30377 H 58.240088097500745 93.27890960500739 217.12012850052807 H 0.0 **** 0.06
30378 H 56.750841593870405 92.30584122254336 217.1790694931821 H 0.0 **** 0.06
30379 H 56.67636104922025 94.02023275585421 216.70456386355062 H 0.0 **** 0.06
30380 H 57.03188520867843 93.57848984216633 218.39204898664434 H 0.0 **** 0.06
30381 C 41.737439949998475 175.14106557762238 181.10924680077375 C 0.0 **** -0.24
30382 H 41.809792941396466 175.80761853517856 180.2495354819393 H 0.0 **** 0.06
30383 H 42.378790901357974 175.5103310676884 181.9106488928739 H 0.0 **** 0.06
30384 H 42.05709495369615 174.13945294808718 180.82014617315718 H 0.0 **** 0.06
30385 H 40.70516116833301 175.1068509375774 181.4557438708091 H 0.0 **** 0.06
30386 C 110.58609617343171 266.40575009641697 202.39672992113304 C 0.0 **** -0.24
30387 H 109.72149925757026 266.90026631216915 201.9533471994315 H 0.0 **** 0.06
30388 H 110.34904879372661 266.10879632631963 203.41861854055975 H 0.0 **** 0.06
30389 H 111.43231136364778 267.0921191375044 202.40519971490767 H 0.0 **** 0.06
30390 H 110.83959860737679 265.522585379709 201.8105909037182 H 0.0 **** 0.06
30391 C 231.17476306712217 86.8257453266601 146.49896804852838 C 0.0 **** -0.24
30392 H 231.76236668176358 86.71599378441044 145.58694231120944 H 0.0 **** 0.06
30393 H 230.96195270793862 87.88082128797836 146.66888806915355 H 0.0 **** 0.06
30394 H 231.73814890681533 86.42716223635244 147.34350062458546 H 0.0 **** 0.06
30395 H 230.23832377349214 86.27657157942107 146.39630355174899 H 0.0 **** 0.06
30396 C 308.5136981205495 128.31431783400404 217.5935754053169 C 0.0 **** -0.24
30397 H 308.24730695808836 127.2779057296506 217.80021772228224 H 0.0 **** 0.06
30398 H 308.5819880300719 128.86579806821757 218.5314705972209 H 0.0 **** 0.06
30399 H 307.74885608272905 128.7658563750471 216.96174002089768 H 0.0 **** 0.06
30400 H 309.47496247063737 128.34732397771123 217.08069647813878 H 0.0 **** 0.06
30401 C 303.986253303631 172.35375191101497 80.73625355561487 C 0.0 **** -0.24
30402 H 303.4436860697039 172.71274743723336 81.60977650931784 H 0.0 **** 0.06
30403 H 304.8363694880602 171.75167574699094 81.05870994094508 H 0.0 **** 0.06
30404 H 304.3428701093616 173.2051248384701 80.15500236194538 H 0.0 **** 0.06
30405 H 303.32284844406746 171.7473524892061 80.12060992671155 H 0.0 **** 0.06
30406 C 84.54824100590642 223.77503530500883 134.7029054495381 C 0.0 **** -0.24
30407 H 83.56109757210714 223.90432830057637 135.14673594936792 H 0.0 **** 0.06
30408 H 84.8059085967439 224.66419589664127 134.12689919269462 H 0.0 **** 0.06
30409 H 84.5399397054492 222.90522874914848 134.04654122840762 H 0.0 **** 0.06
30410 H 85.28567822207302 223.627854791344 135.49309884773984 H 0.0 **** 0.06
30411 C 156.76170267190332 81.0617084874309 0.6715611278782632 C 0.0 **** -0.24
30412 H 155.95101299890484 81.77138558065022 0.5108408085777825 H 0.0 **** 0.06
30413 H 156.3665593170935 80.16007992130292 1.1410118856042146 H 0.0 **** 0.06
30414 H 157.51319503977334 81.51071967887168 1.3212091266050265 H 0.0 **** 0.06
30415 H 157.2154718538019 80.80500734488402 -0.2855743912883639 H 0.0 **** 0.06
30416 C 5.347373018810245 65.24127277961654 176.07789173251223 C 0.0 **** -0.24
30417 H 6.309386226519209 65.05303346194825 176.55302528310898 H 0.0 **** 0.06
30418 H 4.6154517845488385 64.52013434271203 176.4423776908635 H 0.0 **** 0.06
30419 H 5.45052492405037 65.13965100070928 174.9968704306562 H 0.0 **** 0.06
30420 H 5.014340166768676 66.2504368997138 176.31803386356745 H 0.0 **** 0.06
30421 C 188.36109976508624 230.18142811178063 109.90727379012947 C 0.0 **** -0.24
30422 H 189.13442648428008 230.76562744070137 110.40732707243748 H 0.0 **** 0.06
30423 H 188.69305115468228 229.148248281792 109.80810695587073 H 0.0 **** 0.06
30424 H 188.17203057894199 230.60007316782284 108.91924570053573 H 0.0 **** 0.06
30425 H 187.44422673663024 230.21351639183627 110.49696230777224 H 0.0 **** 0.06
30426 C 48.76526325890475 179.09593020693114 136.71599688775078 C 0.0 **** -0.24
30427 H 48.8347621759672 180.18354098936277 136.69974770601786 H 0.0 **** 0.06
30428 H 49.05819386677854 178.69993757841132 135.74353462731813 H 0.0 **** 0.06
30429 H 47.73928249929591 178.80066861974836 136.93487225017589 H 0.0 **** 0.06
30430 H 49.42852557295575 178.70077339054978 137.48514221935775 H 0.0 **** 0.06
30431 C 66.9509416885225 249.28786920618285 117.81534450737803 C 0.0 **** -0.24
30432 H 66.5964748141638 249.31689579840346 116.7848179218197 H 0.0 **** 0.06
30433 H 68.04015231476839 249.3147189614177 117.82586345436997 H 0.0 **** 0.06
30434 H 66.60493640353687 248.370810915227 118.29216395282569 H 0.0 **** 0.06
30435 H 66.55978603380424 250.14872002545127 118.35831455646422 H 0.0 **** 0.06
30436 C 150.21380074828403 214.54753812474738 275.68271539589654 C 0.0 **** -0.24
30437 H 149.59199955002595 213.68271232157173 275.4503537123652 H 0.0 **** 0.06
30438 H 151.24917610466986 214.2273054210109 275.80320706009655 H 0.0 **** 0.06
30439 H 149.8652980404231 215.00831781716667 276.60621541265505 H 0.0 **** 0.06
30440 H 150.1500598520368 215.27004426780258 274.8686181507096 H 0.0 **** 0.06
30441 C 145.2445840854106 309.2026372333381 28.23750638069987 C 0.0 **** -0.24
30442 H 144.78039719009394 308.3758467598253 27.700465985391702 H 0.0 **** 0.06
30443 H 145.09324898992773 310.127379313638 27.680348301319952 H 0.0 **** 0.06
30444 H 146.31336483187616 309.01286835354927 28.34286692386638 H 0.0 **** 0.06
30445 H 144.79293181833165 309.2937181686357 29.22464813174105 H 0.0 **** 0.06
30446 C 79.9776534607366 148.3710214756442 231.47503586982458 C 0.0 **** -0.24
30447 H 79.82738372528996 148.68857611153018 230.44296978088533 H 0.0 **** 0.06
30448 H 79.30489926414052 148.92766271045787 232.12767564633774 H 0.0 **** 0.06
30449 H 81.01048567212962 148.56517301117526 231.76664032874245 H 0.0 **** 0.06
30450 H 79.76979355082617 147.30550040221326 231.56136917959083 H 0.0 **** 0.06
30451 C 275.28672499706124 153.44144167106356 205.1420028756092 C 0.0 **** -0.24
30452 H 274.255693403488 153.32532478502827 205.47606435466702 H 0.0 **** 0.06
30453 H 275.95724410145993 152.97751961018525 205.86631690148312 H 0.0 **** 0.06
30454 H 275.52254796821927 154.50150433545593 205.0531489511331 H 0.0 **** 0.06
30455 H 275.4100423475972 152.95885183425878 204.17175175520424 H 0.0 **** 0.06
30456 C 197.21245024893358 6.804871378948263 45.64292489309662 C 0.0 **** -0.24
30457 H 196.7071997646472 7.305253858147253 44.81719450742065 H 0.0 **** 0.06
30458 H 198.0359941673072 6.205523739790834 45.254320758434176 H 0.0 **** 0.06
30459 H 196.5057711846323 6.1581561498943955 46.16335112631941 H 0.0 **** 0.06
30460 H 197.60148912990525 7.550120857825064 46.33565522057421 H 0.0 **** 0.06
30461 C 211.43034810234903 208.72723332269356 259.9394618744219 C 0.0 **** -0.24
30462 H 211.59577534112333 208.31238938802898 260.93352408893287 H 0.0 **** 0.06
30463 H 211.9421425411235 208.11207251307115 259.20019401014605 H 0.0 **** 0.06
30464 H 211.82174953875273 209.7442302007703 259.9009700653809 H 0.0 **** 0.06
30465 H 210.3614201072988 208.74074466608792 259.72478831197236 H 0.0 **** 0.06
30466 C 188.14430795269988 200.64811439190652 256.02280465799566 C 0.0 **** -0.24
30467 H 188.33008872036396 199.91464486701625 255.23858064047965 H 0.0 **** 0.06
30468 H 187.9325603713546 201.6174343471273 255.57060543226805 H 0.0 **** 0.06
30469 H 189.02402480604133 200.72879356581694 256.6605032342353 H 0.0 **** 0.06
30470 H 187.2894774805681 200.33146429125406 256.620624805627 H 0.0 **** 0.06
30471 C 29.42402084391503 36.65542923729208 88.04419852361099 C 0.0 **** -0.24
30472 H 28.773156324169122 36.468505119674376 87.18934876682735 H 0.0 **** 0.06
30473 H 29.298249126321167 37.68562408871162 88.37698432865764 H 0.0 **** 0.06
30474 H 30.461534870992494 36.49121346873744 87.75281702826376 H 0.0 **** 0.06
30475 H 29.162685258916667 35.97614977032859 88.85524813065533 H 0.0 **** 0.06
30476 C 195.52352353309885 268.9745187058349 247.9630847761151 C 0.0 **** -0.24
30477 H 196.5010609116165 268.86730375947417 247.49195742282316 H 0.0 **** 0.06
30478 H 195.546712544679 268.52054291751546 248.9537848333345 H 0.0 **** 0.06
30479 H 194.77049222451785 268.47828432672895 247.35203188734613 H 0.0 **** 0.06
30480 H 195.2797541624103 270.0331628534425 248.05311484489533 H 0.0 **** 0.06
30481 C 35.46647825534242 204.263490823648 174.56786663305678 C 0.0 **** -0.24
30482 H 35.47012372033552 205.299385288498 174.2286326157096 H 0.0 **** 0.06
30483 H 35.714763745453496 204.2287187396136 175.62861427846275 H 0.0 **** 0.06
30484 H 36.2034941226558 203.69363172783233 174.00241232876647 H 0.0 **** 0.06
30485 H 34.47654545725848 203.8341381244024 174.41119286923816 H 0.0 **** 0.06
30486 C 290.8187448148143 210.12741355777814 150.96292224697117 C 0.0 **** -0.24
30487 H 290.73325977435593 209.88920466964416 152.02262795072664 H 0.0 **** 0.06
30488 H 291.4310146731594 211.02072854226765 150.83979910238514 H 0.0 **** 0.06
30489 H 289.82609527515143 210.30670074202763 150.54925770991014 H 0.0 **** 0.06
30490 H 291.2849470265498 209.29219040010736 150.43955991743996 H 0.0 **** 0.06
30491 C 184.8720285997369 48.2327548450468 307.07013697729116 C 0.0 **** -0.24
30492 H 185.85248698000555 47.76017522438593 307.1330434063904 H 0.0 **** 0.06
30493 H 184.50571532549657 48.173099645596125 306.04447562989475 H 0.0 **** 0.06
30494 H 184.9532719789986 49.2785826199034 307.3669485845207 H 0.0 **** 0.06
30495 H 184.1777640697273 47.71852182566991 307.7349283094947 H 0.0 **** 0.06
30496 C 156.98523710970727 287.10949794547673 119.65781939430866 C 0.0 **** -0.24
30497 H 157.9664549283375 287.5692927706151 119.53822565316577 H 0.0 **** 0.06
30498 H 156.5144733527281 287.00070204449315 118.6809221194898 H 0.0 **** 0.06
30499 H 156.3644254074964 287.740598570489 120.29327134269693 H 0.0 **** 0.06
30500 H 157.09844350983457 286.1286440887846 120.11828151802601 H 0.0 **** 0.06
30501 C 62.135757589694975 194.43578063817012 69.74304660049742 C 0.0 **** -0.24
30502 H 62.90536523048689 194.19621007998762 70.47665778893833 H 0.0 **** 0.06
30503 H 62.325764957013035 195.42579109527662 69.32785044514725 H 0.0 **** 0.06
30504 H 61.15836953415993 194.4248681899412 70.22573993860098 H 0.0 **** 0.06
30505 H 62.154899625649676 193.69648045997167 68.94221067493703 H 0.0 **** 0.06
30506 C 43.901528405066216 19.48536827871466 240.9839687472387 C 0.0 **** -0.24
30507 H 43.88283966172597 18.41016860444688 240.8031795171735 H 0.0 **** 0.06
30508 H 43.045736765936965 19.765760318090543 241.59738485469063 H 0.0 **** 0.06
30509 H 43.85520003306189 20.01368069741136 240.03128620642548 H 0.0 **** 0.06
30510 H 44.82387315931118 19.749534695817047 241.5015309266508 H 0.0 **** 0.06
30511 C 25.775399628403477 289.59883740338717 77.55892464320846 C 0.0 **** -0.24
30512 H 24.690254146641337 289.5362783358231 77.63425718621662 H 0.0 **** 0.06
30513 H 26.14812634571848 288.7534457259527 76.98106042617317 H 0.0 **** 0.06
30514 H 26.21095059929266 289.57684457453973 78.55788911567461 H 0.0 **** 0.06
30515 H 26.05127019484553 290.5287766710079 77.06256616864522 H 0.0 **** 0.06
30516 C 10.503281116408743 258.1471145994748 273.2935083385786 C 0.0 **** -0.24
30517 H 9.497254732023123 258.0378243171016 273.6987155677814 H 0.0 **** 0.06
30518 H 10.45819917746087 258.1526270657514 272.20484329476636 H 0.0 **** 0.06
30519 H 11.121840200779843 257.31463647521167 273.6285966566117 H 0.0 **** 0.06
30520 H 10.935452372050861 259.0843289568224 273.6441001295784 H 0.0 **** 0.06
30521 C 128.21427581902094 259.93111023590905 101.27029365998297 C 0.0 **** -0.24
30522 H 127.48385286081322 259.58489353209393 102.00123185439207 H 0.0 **** 0.06
30523 H 127.75793234268241 260.688574337432 100.63168178708116 H 0.0 **** 0.06
30524 H 128.5440833337933 259.09185923904016 100.65994449244576 H 0.0 **** 0.06
30525 H 129.07042846216223 260.3617586792647 101.7894804466062 H 0.0 **** 0.06
30526 C 34.20603411462017 226.59170932038725 228.06498042199541 C 0.0 **** -0.24
30527 H 34.84218450518685 225.85890830843329 228.56029214457115 H 0.0 **** 0.06
30528 H 34.621889648801044 227.58991496653618 228.20665617352884 H 0.0 **** 0.06
30529 H 33.20423301036493 226.55127393125574 228.493688808831 H 0.0 **** 0.06
30530 H 34.15402379849334 226.36709660705907 227.00006756082573 H 0.0 **** 0.06
30531 C 262.24863128744147 184.91920465860693 68.25889226541878 C 0.0 **** -0.24
30532 H 261.9072354181562 185.32684118085876 67.30720340997331 H 0.0 **** 0.06
30533 H 263.32966931113356 184.78320616160482 68.2284694135661 H 0.0 **** 0.06
30534 H 261.7656808157957 183.95855512876904 68.43740465165041 H 0.0 **** 0.06
30535 H 261.9918143636568 185.60957136399168 69.0621071980191 H 0.0 **** 0.06
30536 C 133.94398432047188 55.208963443160286 175.10075104486305 C 0.0 **** -0.24
30537 H 134.13036090665022 55.48192431667769 176.13993268648164 H 0.0 **** 0.06
30538 H 133.83995937841854 56.113016999074176 174.50005700185415 H 0.0 **** 0.06
30539 H 133.02702656217508 54.6236125272458 175.03895200835058 H 0.0 **** 0.06
30540 H 134.77875684972415 54.61688816054138 174.72625400614965 H 0.0 **** 0.06
30541 C 133.1375938643053 16.703454976920767 172.35449936336744 C 0.0 **** -0.24
30542 H 133.67746642378617 15.772067377416434 172.18630273722437 H 0.0 **** 0.06
30543 H 133.7155773182996 17.535659997957325 171.9527478487405 H 0.0 **** 0.06
30544 H 132.9873524638802 16.847989076492922 173.4245880361541 H 0.0 **** 0.06
30545 H 132.17082023944045 16.657216035286325 171.8550696285658 H 0.0 **** 0.06
30546 C 174.45876687770527 208.27417453681795 109.48613168155333 C 0.0 **** -0.24
30547 H 173.7443660773754 207.65535305780764 108.94189751335466 H 0.0 **** 0.06
30548 H 174.47553738343873 209.27398785897992 109.05304229346135 H 0.0 **** 0.06
30549 H 175.45114841202957 207.82988146256332 109.41675661675941 H 0.0 **** 0.06
30550 H 174.16087380497413 208.33583054183987 110.53348005263595 H 0.0 **** 0.06
30551 C 50.534973959366226 173.95522401752885 202.9394553976801 C 0.0 **** -0.24
30552 H 50.23525785819089 174.9340937289315 202.5646518511436 H 0.0 **** 0.06
30553 H 51.08444861943559 173.42230569033308 202.16329883776035 H 0.0 **** 0.06
30554 H 49.648093650218556 173.38489250369577 203.21411086871484 H 0.0 **** 0.06
30555 H 51.17203413113549 174.0803820837998 203.8145806130437 H 0.0 **** 0.06
30556 C 176.3445419563041 130.90310029336007 150.46673709912136 C 0.0 **** -0.24
30557 H 176.88868000651763 131.59754673366163 149.8263869799677 H 0.0 **** 0.06
30558 H 177.05328317224416 130.2736629381367 151.00397806019447 H 0.0 **** 0.06
30559 H 175.69351784031795 130.27912752840982 149.8549782120685 H 0.0 **** 0.06
30560 H 175.7418851795594 131.46494915614446 151.1814230593307 H 0.0 **** 0.06
30561 C 150.94990721280294 242.23756516252206 65.78816671465069 C 0.0 **** -0.24
30562 H 150.67108525695193 241.7671224203819 64.84603546753527 H 0.0 **** 0.06
30563 H 151.9211666555547 242.72044016237373 65.67932655440703 H 0.0 **** 0.06
30564 H 151.0069523782621 241.47974235563092 66.5700265459379 H 0.0 **** 0.06
30565 H 150.2013049448293 242.98194935152964 66.0577389115451 H 0.0 **** 0.06
30566 C 239.6010981237585 182.22295070301078 92.8822507767552 C 0.0 **** -0.24
30567 H 239.42334467553673 182.6437342474784 93.87134392967317 H 0.0 **** 0.06
30568 H 238.86119846901985 181.44863736303807 92.67837899221087 H 0.0 **** 0.06
30569 H 240.60031090602922 181.7898009576328 92.84561117322227 H 0.0 **** 0.06
30570 H 239.5191070670111 183.01033884445593 92.13252367015093 H 0.0 **** 0.06
30571 C 188.65941271283958 55.77490099559816 216.4563009391232 C 0.0 **** -0.24
30572 H 189.70275900307388 55.664743284434394 216.1620270128762 H 0.0 **** 0.06
30573 H 188.58540325652353 55.76859908284507 217.54391173238398 H 0.0 **** 0.06
30574 H 188.0782476311241 54.94775976119371 216.04839301202077 H 0.0 **** 0.06
30575 H 188.27106976738747 56.71723319880243 216.07027098667345 H 0.0 **** 0.06
30576 C 3.3200939156973703 147.41597838116982 112.93816376721048 C 0.0 **** -0.24
30577 H 3.846184305427272 146.70604909664328 113.57725896180136 H 0.0 **** 0.06
30578 H 3.4362016815354224 147.12105637774883 111.89506293295284 H 0.0 **** 0.06
30579 H 3.7359952004337913 148.413020661534 113.08328152136136 H 0.0 **** 0.06
30580 H 2.261532713244904 147.42171115807363 113.19774162692781 H 0.0 **** 0.06
30581 C 294.4387681672777 225.93999447534955 38.86017901659366 C 0.0 **** -0.24
30582 H 293.52049837963426 226.5178738672492 38.748831084263855 H 0.0 **** 0.06
30583 H 294.436491181479 225.11492736548286 38.147874706930395 H 0.0 **** 0.06
30584 H 294.4971714813584 225.5448568127258 39.874449015784734 H 0.0 **** 0.06
30585 H 295.29807944326024 226.58296449155137 38.67081155026841 H 0.0 **** 0.06
30586 C 182.05484029732526 184.87608616973466 46.47314511018487 C 0.0 **** -0.24
30587 H 181.19422674190008 184.43736350566763 46.97871418067345 H 0.0 **** 0.06
30588 H 182.66305881933283 184.08344647434706 46.037078723163376 H 0.0 **** 0.06
30589 H 182.65030014821468 185.43773448157867 47.19176676462459 H 0.0 **** 0.06
30590 H 181.71059665674744 185.54558367165356 45.684270110534214 H 0.0 **** 0.06
30591 C 15.760266289620489 165.88259254786385 180.16869647410647 C 0.0 **** -0.24
30592 H 15.617723151656534 165.3841315078089 179.21057728041103 H 0.0 **** 0.06
30593 H 16.799174513564296 166.2009437822412 180.26072662372422 H 0.0 **** 0.06
30594 H 15.519044796354251 165.19158613498763 180.97724621560116 H 0.0 **** 0.06
30595 H 15.107532068648695 166.7528687568887 180.2274561650804 H 0.0 **** 0.06
30596 C 33.540505240766095 38.29642410698199 214.26567467503614 C 0.0 **** -0.24
30597 H 33.07743987631568 37.322493144035036 214.10808249164018 H 0.0 **** 0.06
30598 H 32.764482938267065 39.054553619436405 214.3716953277471 H 0.0 **** 0.06
30599 H 34.17279986859842 38.539522697442294 213.41204599317365 H 0.0 **** 0.06
30600 H 34.146782338846094 38.267810268542064 215.17086397953835 H 0.0 **** 0.06
30601 C 203.2741227150869 157.11215694198603 211.3264764677782 C 0.0 **** -0.24
30602 H 202.96581255968545 156.08977198368683 211.10829032181414 H 0.0 **** 0.06
30603 H 204.268462955757 157.28783420083232 210.91632121046922 H 0.0 **** 0.06
30604 H 203.29405570949547 157.26259494465415 212.406341939813 H 0.0 **** 0.06
30605 H 202.56732785158232 157.80910095319246 210.87631381344053 H 0.0 **** 0.06
30606 C 3.3330082640271286 154.60595164395153 12.35947866793019 C 0.0 **** -0.24
30607 H 3.158351664164826 155.02796252067105 13.349190869589336 H 0.0 **** 0.06
30608 H 2.5723968613605876 154.9710146483555 11.669945751325997 H 0.0 **** 0.06
30609 H 3.2844966221488647 153.51884945984943 12.414594978774076 H 0.0 **** 0.06
30610 H 4.319330160865974 154.90780346713098 12.005283879091081 H 0.0 **** 0.06
30611 C 144.02279487746114 310.36424250197996 296.3991071030909 C 0.0 **** -0.24
30612 H 143.76023949103322 309.50551902469977 295.78226514370317 H 0.0 **** 0.06
30613 H 144.962064647781 310.7908494515027 296.0470088788161 H 0.0 **** 0.06
30614 H 144.13434724791927 310.0461797941413 297.43577461647294 H 0.0 **** 0.06
30615 H 143.23474569885389 311.1141880442428 296.33232742980977 H 0.0 **** 0.06
30616 C 272.3303039837027 55.50200320657001 106.37663326605463 C 0.0 **** -0.24
30617 H 272.4530758997254 55.9663861753877 105.39811813313005 H 0.0 **** 0.06
30618 H 273.3024121749173 55.18660292373909 106.75370443915625 H 0.0 **** 0.06
30619 H 271.6747405301443 54.63559618606712 106.28771316622453 H 0.0 **** 0.06
30620 H 271.88822970918267 56.22162715409115 107.06574941025977 H 0.0 **** 0.06
30621 C 102.18451652962099 258.87917013847624 33.81502769600749 C 0.0 **** -0.24
30622 H 103.09414132549253 259.4760714480236 33.76633582576443 H 0.0 **** 0.06
30623 H 101.85069065656305 258.80752211227616 34.85036879852876 H 0.0 **** 0.06
30624 H 102.38517914597713 257.8797419008756 33.42766214894408 H 0.0 **** 0.06
30625 H 101.40708738973674 259.3510089247221 33.21412966621219 H 0.0 **** 0.06
30626 C 306.27211925791806 62.845701285899935 195.83793520141035 C 0.0 **** -0.24
30627 H 305.6569458648562 63.36371473419217 195.10218856445937 H 0.0 **** 0.06
30628 H 306.1423601424277 63.31347567370901 196.8144868126455 H 0.0 **** 0.06
30629 H 307.31973586518507 62.90583155082683 195.54202111258314 H 0.0 **** 0.06
30630 H 305.9687394727997 61.80025424169233 195.89250197804887 H 0.0 **** 0.06
30631 C 81.77501305082012 238.52762072932228 312.26614006547277 C 0.0 **** -0.24
30632 H 81.65841501016803 239.58683057857246 312.0334906531357 H 0.0 **** 0.06
30633 H 82.76540385989611 238.3566309211376 312.68896968164324 H 0.0 **** 0.06
30634 H 81.66256170550645 237.9408157099508 311.3551071851643 H 0.0 **** 0.06
30635 H 81.01454767069569 238.2287590963591 312.98783701127604 H 0.0 **** 0.06
30636 C 269.0898160624251 39.70008384670686 32.850031392625795 C 0.0 **** -0.24
30637 H 269.1737262654058 39.16393383352181 33.795321078909495 H 0.0 **** 0.06
30638 H 270.08638300441277 39.87714863828066 32.44444078165057 H 0.0 **** 0.06
30639 H 268.5909680623085 40.65487836683195 33.01838058420802 H 0.0 **** 0.06
30640 H 268.5090037685958 39.106052995958294 32.14522590703328 H 0.0 **** 0.06
30641 C 282.8274843838078 12.47876864004337 173.21304980157663 C 0.0 **** -0.24
30642 H 281.8253577250017 12.642079322183648 173.61148064605635 H 0.0 **** 0.06
30643 H 283.23723948323675 11.558954566307307 173.62958932588128 H 0.0 **** 0.06
30644 H 283.4671296310018 13.317620117567273 173.48426465840112 H 0.0 **** 0.06
30645 H 282.77687454578387 12.395972391757098 172.1276826874094 H 0.0 **** 0.06
30646 C 171.35689446877643 9.442992608460031 305.9300659680636 C 0.0 **** -0.24
30647 H 171.2868889526884 10.312174901633526 306.5839327114237 H 0.0 **** 0.06
30648 H 171.96602993270562 9.690251065622121 305.0602731222215 H 0.0 **** 0.06
30649 H 170.35852620044864 9.152604685655206 305.60431759760473 H 0.0 **** 0.06
30650 H 171.81654463866982 8.616634858316871 306.4730585499806 H 0.0 **** 0.06
30651 C 119.87043797384663 148.37162589600757 273.7677276014197 C 0.0 **** -0.24
30652 H 119.79821247568626 147.67091690952554 274.59932169836287 H 0.0 **** 0.06
30653 H 120.82177937494484 148.23103065453472 273.25444710564074 H 0.0 **** 0.06
30654 H 119.80849983884747 149.39149245030984 274.1462011470669 H 0.0 **** 0.06
30655 H 119.05056613976026 148.19220303375295 273.0709794618892 H 0.0 **** 0.06
30656 C 152.2290941543854 299.1927668249526 160.73721866264958 C 0.0 **** -0.24
30657 H 151.21264144607085 298.8114064521613 160.83451464230546 H 0.0 **** 0.06
30658 H 152.9253438672544 298.4929054584115 161.19998940254544 H 0.0 **** 0.06
30659 H 152.30234928226037 300.1604986537468 161.23400347145423 H 0.0 **** 0.06
30660 H 152.47508127762023 299.3060857041632 159.68179812420055 H 0.0 **** 0.06
30661 C 137.67900394464266 216.3364242484471 182.29519750604368 C 0.0 **** -0.24
30662 H 138.71036140910712 216.46219194804905 182.62439746838788 H 0.0 **** 0.06
30663 H 137.43649107851434 215.27326676801167 182.26200050278516 H 0.0 **** 0.06
30664 H 137.55860769584515 216.76838573024992 181.30261835890423 H 0.0 **** 0.06
30665 H 137.01036893541874 216.8394744973437 182.99407805632052 H 0.0 **** 0.06
30666 C 68.53051458319328 84.93196069966942 102.67240963043406 C 0.0 **** -0.24
30667 H 68.55880972631167 84.13969759449554 101.92440568225095 H 0.0 **** 0.06
30668 H 67.51307222971744 85.03983700394863 103.04903824438941 H 0.0 **** 0.06
30669 H 68.85298451893343 85.8698302661326 102.22090086658434 H 0.0 **** 0.06
30670 H 69.19700194366806 84.67655953891747 103.4964267400093 H 0.0 **** 0.06
30671 C 181.86825684111994 227.0028577412876 238.70587225921292 C 0.0 **** -0.24
30672 H 181.0030118910878 226.88854926493087 238.05326510601367 H 0.0 **** 0.06
30673 H 181.54767680095676 227.41027898759344 239.66534280146766 H 0.0 **** 0.06
30674 H 182.58495414964364 227.68245114309968 238.24352484508012 H 0.0 **** 0.06
30675 H 182.33658375747655 226.03128355922686 238.86107810586896 H 0.0 **** 0.06
30676 C 178.4332121480556 156.91977439233096 111.92812070239626 C 0.0 **** -0.24
30677 H 178.8369443545136 157.29742887677588 112.86812322944294 H 0.0 **** 0.06
30678 H 177.82255152506053 157.69190720965884 111.45991255763113 H 0.0 **** 0.06
30679 H 177.8199435499925 156.04120280795098 112.12425315832846 H 0.0 **** 0.06
30680 H 179.25315283669136 156.65083791456766 111.26212761810626 H 0.0 **** 0.06
30681 C 259.89430536772545 77.45441519357723 6.319441693385386 C 0.0 **** -0.24
30682 H 260.95608188655507 77.27165255095323 6.4859253027952946 H 0.0 **** 0.06
30683 H 259.7716287109787 78.14953195356637 5.48810332456236 H 0.0 **** 0.06
30684 H 259.4542452584695 77.88322477989038 7.22044379905482 H 0.0 **** 0.06
30685 H 259.39656258262295 76.51358438533492 6.083749390375743 H 0.0 **** 0.06
30686 C 227.0525277072591 87.83728474458769 192.8531192613985 C 0.0 **** -0.24
30687 H 225.97904332730945 87.89122906276356 193.03404644587056 H 0.0 **** 0.06
30688 H 227.33391008182548 86.80504970768848 192.6402104864826 H 0.0 **** 0.06
30689 H 227.58742502542043 88.18452262612283 193.73721318374675 H 0.0 **** 0.06
30690 H 227.30922027412302 88.46719217262594 192.00220099152233 H 0.0 **** 0.06
30691 C 135.05352059203852 127.48628792050431 254.98775600420467 C 0.0 **** -0.24
30692 H 136.09873221852547 127.26506976635434 255.20545886870258 H 0.0 **** 0.06
30693 H 134.4232008932541 127.06415235471849 255.77063338457586 H 0.0 **** 0.06
30694 H 134.78281420691613 127.04788630686548 254.0274162588652 H 0.0 **** 0.06
30695 H 134.91184262743732 128.56593822553336 254.94804555847827 H 0.0 **** 0.06
30696 C 8.433520993125896 170.9171362132804 205.44044577022117 C 0.0 **** -0.24
30697 H 9.072199958460516 170.82481344823674 204.56137123344638 H 0.0 **** 0.06
30698 H 8.622824800455504 170.0836236767501 206.11651623095935 H 0.0 **** 0.06
30699 H 7.388606601937724 170.9063036557892 205.13266189412178 H 0.0 **** 0.06
30700 H 8.652234044156188 171.85611462933838 205.94965642272138 H 0.0 **** 0.06
30701 C 189.35783907487576 295.16229393124695 101.6442234671915 C 0.0 **** -0.24
30702 H 189.44749415167882 295.2296432814904 102.72894250319149 H 0.0 **** 0.06
30703 H 190.13333126300648 294.502380959185 101.25711872789753 H 0.0 **** 0.06
30704 H 189.4731807940808 296.15517786555245 101.20927504306482 H 0.0 **** 0.06
30705 H 188.37692204751818 294.76353704683555 101.38560389628302 H 0.0 **** 0.06
30706 C 212.34263048126795 1.3530240624279486 303.53437531856554 C 0.0 **** -0.24
30707 H 212.32287004373225 2.3397247669320222 303.0724417828716 H 0.0 **** 0.06
30708 H 211.3207825877259 1.0055567859267285 303.69001184637943 H 0.0 **** 0.06
30709 H 212.85658125320919 1.41164049598342 304.4942336785922 H 0.0 **** 0.06
30710 H 212.8686698450352 0.6565179634371816 302.88206926436237 H 0.0 **** 0.06
30711 C 116.71438995879609 189.07089268714122 268.8068153589088 C 0.0 **** -0.24
30712 H 116.25297695853632 189.96264326962114 268.38233179891864 H 0.0 **** 0.06
30713 H 115.93769013543442 188.3491427544804 269.0647529110609 H 0.0 **** 0.06
30714 H 117.27116030903747 189.3411815204638 269.70366265381523 H 0.0 **** 0.06
30715 H 117.39207375214079 188.6298742794109 268.07680180849854 H 0.0 **** 0.06
30716 C 287.0660979794859 193.37789616550089 157.65059066525782 C 0.0 **** -0.24
30717 H 286.05037671664456 192.99411503762354 157.56183422085513 H 0.0 **** 0.06
30718 H 287.0647795810193 194.26409314774588 158.28566823767255 H 0.0 **** 0.06
30719 H 287.44379180747984 193.6384296925321 156.66195574641768 H 0.0 **** 0.06
30720 H 287.70546909948735 192.61340142823212 158.09368628044405 H 0.0 **** 0.06
30721 C 42.625402007972355 204.90186449548554 90.99476509913711 C 0.0 **** -0.24
30722 H 43.019515496339864 204.8446658272366 92.01013952625394 H 0.0 **** 0.06
30723 H 41.81819956020502 204.17897129647866 90.87806043087551 H 0.0 **** 0.06
30724 H 43.42106932937406 204.6767513987828 90.28428711970068 H 0.0 **** 0.06
30725 H 42.2449011484764 205.90648317635674 90.80909131594797 H 0.0 **** 0.06
30726 C 238.31772116560438 200.388041161765 225.71819629683722 C 0.0 **** -0.24
30727 H 238.0683221592166 201.18417981998414 225.0174376237362 H 0.0 **** 0.06
30728 H 238.6683101497273 199.51434510462752 225.16681537252663 H 0.0 **** 0.06
30729 H 237.43303145432003 200.1218301779872 226.29611945286194 H 0.0 **** 0.06
30730 H 239.10203714831562 200.7303770813209 226.39294358675895 H 0.0 **** 0.06
30731 C 45.0798948550584 240.9561392775774 201.0655130012608 C 0.0 **** -0.24
30732 H 44.12740611831279 240.89616617180707 200.53709291107674 H 0.0 **** 0.06
30733 H 45.51000959939947 239.95829960072348 201.15276342708398 H 0.0 **** 0.06
30734 H 44.91732598662651 241.37172240370433 202.06034835524503 H 0.0 **** 0.06
30735 H 45.76245283713001 241.59908359557517 200.50989752774012 H 0.0 **** 0.06
30736 C 70.3004435707019 177.9888412905085 238.87923681776698 C 0.0 **** -0.24
30737 H 69.55975247065817 177.35810897720296 239.36981585192984 H 0.0 **** 0.06
30738 H 71.04633423156841 178.30904783202288 239.60765033281785 H 0.0 **** 0.06
30739 H 69.80834246555719 178.86315214756627 238.4539341318847 H 0.0 **** 0.06
30740 H 70.78794516461721 177.4235339700736 238.08402289305462 H 0.0 **** 0.06
30741 C 148.06718208500945 293.9685090772016 109.69971179150514 C 0.0 **** -0.24
30742 H 147.0349563095393 293.7404161618219 109.96722800551464 H 0.0 **** 0.06
30743 H 148.18093715042536 293.9168334818469 108.61642153838832 H 0.0 **** 0.06
30744 H 148.7323695560682 293.2440522211585 110.1699726165991 H 0.0 **** 0.06
30745 H 148.31884045696776 294.9712011246724 110.04531860856139 H 0.0 **** 0.06
30746 C 172.13775951062792 191.283635875814 37.53762516248713 C 0.0 **** -0.24
30747 H 173.03332498261528 191.48457568360783 36.94809989813601 H 0.0 **** 0.06
30748 H 172.0277944975427 190.20781158423455 37.673875444209585 H 0.0 **** 0.06
30749 H 171.2646546456897 191.6754129896902 37.01587624063944 H 0.0 **** 0.06
30750 H 172.22810795174985 191.76672186427368 38.510217797684646 H 0.0 **** 0.06
30751 C 99.54340037967032 248.3551297626194 84.00612753136448 C 0.0 **** -0.24
30752 H 99.52305705517244 247.76491525156874 84.92215063640461 H 0.0 **** 0.06
30753 H 99.21045372089003 247.7395288030836 83.16970578553472 H 0.0 **** 0.06
30754 H 100.55973462723861 248.70199434601005 83.81990989750014 H 0.0 **** 0.06
30755 H 98.8809390486256 249.2137949570198 84.11198316618186 H 0.0 **** 0.06
30756 C 253.70606254023474 64.06740089101288 87.57310758725 C 0.0 **** -0.24
30757 H 253.28315952992102 64.550782775655 88.45436654578674 H 0.0 **** 0.06
30758 H 252.9951720279548 63.34176192031916 87.1802028843679 H 0.0 **** 0.06
30759 H 254.630533787885 63.55910015605485 87.84788863997508 H 0.0 **** 0.06
30760 H 253.91665401172085 64.81928027386033 86.81323459054855 H 0.0 **** 0.06
30761 C 40.881175682213666 26.697375829504722 44.89765143578754 C 0.0 **** -0.24
30762 H 41.78967895704875 26.49758089078108 45.46397035884118 H 0.0 **** 0.06
30763 H 40.76244275840088 25.93965041557408 44.1221586590797 H 0.0 **** 0.06
30764 H 40.95104487900966 27.68207442202106 44.43504217403557 H 0.0 **** 0.06
30765 H 40.021320069921615 26.670482090830262 45.56645589113515 H 0.0 **** 0.06
30766 C 64.5784189168748 32.6586665653069 128.78502077883604 C 0.0 **** -0.24
30767 H 64.4220030399101 32.9488260220574 127.74623451045358 H 0.0 **** 0.06
30768 H 65.5528499966741 33.01540248391362 129.1188619170983 H 0.0 **** 0.06
30769 H 64.54036807952681 31.572086766128393 128.86788106871708 H 0.0 **** 0.06
30770 H 63.79716214657111 33.09809153059493 129.40598206019064 H 0.0 **** 0.06
30771 C 26.921638649549976 105.87990052096325 45.13193021017253 C 0.0 **** -0.24
30772 H 26.03110645725124 105.34858839796294 45.46951901003865 H 0.0 **** 0.06
30773 H 27.60509165526196 106.01052925132996 45.970476255572066 H 0.0 **** 0.06
30774 H 26.635518582874226 106.85633391414015 44.7405486984548 H 0.0 **** 0.06
30775 H 27.412873881292228 105.30366352060622 44.34812844016153 H 0.0 **** 0.06
30776 C 79.18516181352933 18.935375793489015 155.60683697940522 C 0.0 **** -0.24
30777 H 78.27816244358857 19.514953806603614 155.43881670185021 H 0.0 **** 0.06
30778 H 79.01147520311741 17.897770374674792 155.31636095637066 H 0.0 **** 0.06
30779 H 79.45310963515522 18.976788397556618 156.66249000488494 H 0.0 **** 0.06
30780 H 79.99739559501623 19.34903897065584 155.0098634406047 H 0.0 **** 0.06
30781 C 203.8882055817886 110.21302847453768 303.78608702379535 C 0.0 **** -0.24
30782 H 204.667743415884 110.14739719959942 304.545763043801 H 0.0 **** 0.06
30783 H 204.06180698306588 109.45576989932886 303.0217171182497 H 0.0 **** 0.06
30784 H 203.90896506418028 111.20203186543682 303.329831963078 H 0.0 **** 0.06
30785 H 202.91564758079693 110.0464261704837 304.2487574843525 H 0.0 **** 0.06
30786 C 68.6712762170439 51.49956170584187 20.656200570341852 C 0.0 **** -0.24
30787 H 68.76975857060128 51.990934526742535 21.62364944359578 H 0.0 **** 0.06
30788 H 67.71257609718089 51.76490104717652 20.21049611183784 H 0.0 **** 0.06
30789 H 68.72317680559948 50.419635642694686 20.78983578682748 H 0.0 **** 0.06
30790 H 69.4796731908043 51.82410630860056 20.000348843568418 H 0.0 **** 0.06
30791 C 173.8881782842334 299.78419357542464 44.158641937836336 C 0.0 **** -0.24
30792 H 174.44435730034388 299.3643073514057 44.996832734322055 H 0.0 **** 0.06
30793 H 173.22354384421544 299.0230517370256 43.748232971966644 H 0.0 **** 0.06
30794 H 174.5846669557186 300.1122581833372 43.38854357854322 H 0.0 **** 0.06
30795 H 173.29906635701917 300.63394959712855 44.50255499027088 H 0.0 **** 0.06
30796 C 130.15540854969927 22.55162486765741 247.4558867498714 C 0.0 **** -0.24
30797 H 129.6826868189406 21.58864838624038 247.26124653300147 H 0.0 **** 0.06
30798 H 131.01523607069885 22.407284734435535 248.11008237049725 H 0.0 **** 0.06
30799 H 129.4391428665869 23.217369751448672 247.9370744153988 H 0.0 **** 0.06
30800 H 130.48441031222168 22.990748838388924 246.51373531230166 H 0.0 **** 0.06
30801 C 36.40465285332496 13.240527892156251 206.79988676435994 C 0.0 **** -0.24
30802 H 35.86910683578151 13.983648943839924 206.2089756745309 H 0.0 **** 0.06
30803 H 37.219039883547566 12.82323217222637 206.2072575386327 H 0.0 **** 0.06
30804 H 35.71899093063317 12.443528348729032 207.0891268195594 H 0.0 **** 0.06
30805 H 36.81044510639208 13.712670095222933 207.69425678542922 H 0.0 **** 0.06
30806 C 25.754760300299125 72.39396839285016 284.6249181744384 C 0.0 **** -0.24
30807 H 25.421064600600374 71.89282465153755 283.7169950087889 H 0.0 **** 0.06
30808 H 26.110699256052897 73.39453421466723 284.37651959887535 H 0.0 **** 0.06
30809 H 26.565196804626794 71.82299904241395 285.0775306149611 H 0.0 **** 0.06
30810 H 24.924356789552633 72.46721243295531 285.326404927691 H 0.0 **** 0.06
30811 C 74.91756612161151 80.49127168342076 207.26084546227457 C 0.0 **** -0.24
30812 H 75.30250672107758 79.93269452369597 208.1143304614444 H 0.0 **** 0.06
30813 H 75.72548817936433 80.66714697465241 206.55006336909884 H 0.0 **** 0.06
30814 H 74.5190801316975 81.44588795851232 207.60194519196307 H 0.0 **** 0.06
30815 H 74.12697834477342 79.9177436073013 206.77847127514343 H 0.0 **** 0.06
30816 C 232.1638079426324 287.810609898074 174.13645030140168 C 0.0 **** -0.24
30817 H 233.00100205741154 287.6653894007337 173.4524120134907 H 0.0 **** 0.06
30818 H 232.3105551564686 287.19679846591987 175.02499075044318 H 0.0 **** 0.06
30819 H 231.23704954420845 287.5188559144458 173.64146157623708 H 0.0 **** 0.06
30820 H 232.10701967530153 288.86014128850763 174.4235797129835 H 0.0 **** 0.06
30821 C 147.29968496219882 291.9441834589565 215.08473102852423 C 0.0 **** -0.24
30822 H 148.0276178325129 291.59032563840213 214.35446893149367 H 0.0 **** 0.06
30823 H 147.5626091914961 291.565363819501 216.07304367448927 H 0.0 **** 0.06
30824 H 146.30711429699434 291.5865182936313 214.8110479021289 H 0.0 **** 0.06
30825 H 147.30137351371343 293.03356294748824 215.1006314609773 H 0.0 **** 0.06
30826 C 130.33935873520747 300.4807330936062 293.27687624658785 C 0.0 **** -0.24
30827 H 130.39190074626003 301.04894888731417 294.20546899798626 H 0.0 **** 0.06
30828 H 129.37565997738062 300.65746461134836 292.7975662927193 H 0.0 **** 0.06
30829 H 130.44754332207808 299.41800907682386 293.4946676861264 H 0.0 **** 0.06
30830 H 131.14141509675557 300.7992703102543 292.6105655178141 H 0.0 **** 0.06
30831 C 268.61677856129666 260.1061138359883 202.64086931568397 C 0.0 **** -0.24
30832 H 269.6074893651073 259.84637381576687 203.01520950796436 H 0.0 **** 0.06
30833 H 267.9796497993391 259.22195840853794 202.6535369707753 H 0.0 **** 0.06
30834 H 268.70143930981396 260.47868325358064 201.61994525514268 H 0.0 **** 0.06
30835 H 268.180345264474 260.87881005815075 203.27386447848903 H 0.0 **** 0.06
30836 C 267.9782835545744 60.2810441733717 117.19225945454309 C 0.0 **** -0.24
30837 H 267.8748592084189 60.573695820679916 116.14690603468574 H 0.0 **** 0.06
30838 H 267.3061799838931 59.44830086300547 117.40340330776053 H 0.0 **** 0.06
30839 H 267.72426693768654 61.125470138162456 117.83235295916336 H 0.0 **** 0.06
30840 H 269.0065117246175 59.975839724628514 117.38298286363619 H 0.0 **** 0.06
30841 C 263.4839594120779 229.933991547215 54.99605747900412 C 0.0 **** -0.24
30842 H 262.6871759821926 229.19108535565778 54.95432130516386 H 0.0 **** 0.06
30843 H 264.32202841243253 229.53521185598947 55.56798794697579 H 0.0 **** 0.06
30844 H 263.112014669491 230.8375773668512 55.47879666718646 H 0.0 **** 0.06
30845 H 263.81311448017095 230.17113237769541 53.98480255881111 H 0.0 **** 0.06
30846 C 51.763772668665865 261.38655795577114 1.5665125227217231 C 0.0 **** -0.24
30847 H 52.01984669414293 260.4131032914552 1.1477602547693664 H 0.0 **** 0.06
30848 H 51.8861183401938 261.35881267824834 2.649940920317704 H 0.0 **** 0.06
30849 H 50.72889294578741 261.6247815937784 1.3235623193319839 H 0.0 **** 0.06
30850 H 52.42058500236723 262.1471931312175 1.1454151058920274 H 0.0 **** 0.06
30851 C 213.60813576448544 106.3323252044841 102.27967595914083 C 0.0 **** -0.24
30852 H 214.54327138902556 106.28650082314243 101.72158829626673 H 0.0 **** 0.06
30853 H 212.82070640267625 106.7259631715882 101.63731508019598 H 0.0 **** 0.06
30854 H 213.7323129974765 106.98469909736653 103.14359705816622 H 0.0 **** 0.06
30855 H 213.33701591415988 105.3311223137992 102.6168245243889 H 0.0 **** 0.06
30856 C 195.4199627283973 9.788735427895105 223.65950268267952 C 0.0 **** -0.24
30857 H 194.32999656965075 9.803106415738597 223.64225161419265 H 0.0 **** 0.06
30858 H 195.77730084387252 10.333025217440863 224.53320597473584 H 0.0 **** 0.06
30859 H 195.80348543447468 10.260695113204847 222.75448846022954 H 0.0 **** 0.06
30860 H 195.7687854761137 8.756714637272552 223.70562352181165 H 0.0 **** 0.06
30861 C 218.3025882574399 175.43098970808518 293.93047221791176 C 0.0 **** -0.24
30862 H 217.46425555261345 174.88184124991403 293.5008379540659 H 0.0 **** 0.06
30863 H 218.40543182849456 176.39141140294169 293.4242778650075 H 0.0 **** 0.06
30864 H 219.21747902937835 174.85293134029973 293.8046996302347 H 0.0 **** 0.06
30865 H 218.12086266435657 175.59741290069343 294.99275771839405 H 0.0 **** 0.06
30866 C 242.24767402168203 11.671974432048486 274.5667795495481 C 0.0 **** -0.24
30867 H 242.93515293922803 12.489886802589908 274.7843788276624 H 0.0 **** 0.06
30868 H 241.94927867147473 11.190912623122387 275.49863528093505 H 0.0 **** 0.06
30869 H 242.74256939519904 10.944021236601372 273.92342267553033 H 0.0 **** 0.06
30870 H 241.36577352037975 12.063863442044209 274.06043297077827 H 0.0 **** 0.06
30871 C 266.4992370302588 125.13063128998903 105.53348969050089 C 0.0 **** -0.24
30872 H 266.5120914742921 124.0404751354977 105.5343108503696 H 0.0 **** 0.06
30873 H 267.07422383661043 125.49958585188705 104.68367908961511 H 0.0 **** 0.06
30874 H 266.9411438111684 125.50011308262935 106.45852209482359 H 0.0 **** 0.06
30875 H 265.4707437894572 125.4815558149638 105.45610767658397 H 0.0 **** 0.06
30876 C 203.55489966693648 48.41743417182113 18.946956740856223 C 0.0 **** -0.24
30877 H 204.3395804873989 48.062441733653515 19.615210232954794 H 0.0 **** 0.06
30878 H 203.08289408857536 49.299257178986096 19.37896861935843 H 0.0 **** 0.06
30879 H 202.809853915727 47.63290658157723 18.81437228124426 H 0.0 **** 0.06
30880 H 203.98968639088793 48.67324668378885 17.980544916208515 H 0.0 **** 0.06
30881 C 48.31673600989507 34.78922612129708 225.00132363916265 C 0.0 **** -0.24
30882 H 47.66350308213384 35.62999499201041 225.23390221996803 H 0.0 **** 0.06
30883 H 48.95811156169981 35.05063085439943 224.1588681074214 H 0.0 **** 0.06
30884 H 47.71209068938981 33.920650236629655 224.74196420664492 H 0.0 **** 0.06
30885 H 48.93304108008414 34.556573144500504 225.8695263811158 H 0.0 **** 0.06
30886 C 97.08823958064761 5.1169618703346345 63.32933456822104 C 0.0 **** -0.24
30887 H 96.9803899842905 5.86364454063515 64.11494757505605 H 0.0 **** 0.06
30888 H 96.15546738612713 4.563641306764438 63.22220037567163 H 0.0 **** 0.06
30889 H 97.89121691474583 4.4275404633646644 63.59066936438089 H 0.0 **** 0.06
30890 H 97.32719394604663 5.6122708305256594 62.3875919279061 H 0.0 **** 0.06
30891 C 50.471304388290264 218.55590620563618 121.23691002232314 C 0.0 **** -0.24
30892 H 51.127254565685575 218.7894592526713 122.07537927506479 H 0.0 **** 0.06
30893 H 50.433576262024644 219.4070188390345 120.55702825062468 H 0.0 **** 0.06
30894 H 49.469166608270825 218.34173449922062 121.6084765714912 H 0.0 **** 0.06
30895 H 50.856203231682684 217.6839864846511 120.70672869798943 H 0.0 **** 0.06
30896 C 59.31299643007799 294.97645407456906 303.01855656568705 C 0.0 **** -0.24
30897 H 59.80023509463226 294.13128075835914 302.5321926072947 H 0.0 **** 0.06
30898 H 58.820619662020874 295.59358301221084 302.26613623869287 H 0.0 **** 0.06
30899 H 60.05894348329355 295.57158124685475 303.5454056834732 H 0.0 **** 0.06
30900 H 58.57285319115593 294.60924603156343 303.7292503023531 H 0.0 **** 0.06
30901 C 212.9411812689517 80.27694180489908 96.1776241982956 C 0.0 **** -0.24
30902 H 212.51421458330205 79.33162115495375 96.50961916707146 H 0.0 **** 0.06
30903 H 213.15609159962844 80.90304962221808 97.04370785573522 H 0.0 **** 0.06
30904 H 212.22980799743453 80.78787739712303 95.52745018550729 H 0.0 **** 0.06
30905 H 213.86301320270206 80.08667365589963 95.6285656728551 H 0.0 **** 0.06
30906 C 175.55477220099465 40.24778378825428 43.245383845951096 C 0.0 **** -0.24
30907 H 174.52975685280296 40.322181104034115 42.88114775668214 H 0.0 **** 0.06
30908 H 176.24557169333895 40.46330730409471 42.43034947570305 H 0.0 **** 0.06
30909 H 175.73459119318704 39.23874725334227 43.61838352159043 H 0.0 **** 0.06
30910 H 175.7066045397703 40.96479707146449 44.051710230881554 H 0.0 **** 0.06
30911 C 236.36926514133174 33.807646592383065 170.12089974926732 C 0.0 **** -0.24
30912 H 237.22147364400908 33.20714812073206 169.8006894913757 H 0.0 **** 0.06
30913 H 235.89989195538922 34.26463498396748 169.25004110993285 H 0.0 **** 0.06
30914 H 236.70960216790672 34.5868597105451 170.80234451699727 H 0.0 **** 0.06
30915 H 235.64637813930713 33.16895832038571 170.6306075413504 H 0.0 **** 0.06
30916 C 215.15394214462833 260.233970426255 247.9551950602375 C 0.0 **** -0.24
30917 H 214.7250073794244 259.644087520721 247.14461287507817 H 0.0 **** 0.06
30918 H 214.59737863578474 260.045909789873 248.87323024844085 H 0.0 **** 0.06
30919 H 215.0950833980628 261.2924396716918 247.7037972688893 H 0.0 **** 0.06
30920 H 216.19715997063983 259.9514562023477 248.0967423348577 H 0.0 **** 0.06
30921 C 262.6045942187594 42.51774263794803 124.05884040389486 C 0.0 **** -0.24
30922 H 261.81227358534596 42.08772737266398 123.44593157175782 H 0.0 **** 0.06
30923 H 263.04781792123947 41.73770208714754 124.67863379115738 H 0.0 **** 0.06
30924 H 262.1877972397472 43.29591927279165 124.69781438677452 H 0.0 **** 0.06
30925 H 263.3698640663211 42.948052042468134 123.41336443705495 H 0.0 **** 0.06
30926 C 114.93150306748683 146.1211377693287 38.151025038650005 C 0.0 **** -0.24
30927 H 114.15798278769972 145.37583767506385 37.965389651597235 H 0.0 **** 0.06
30928 H 114.78855181357528 146.5534116900307 39.142068202468266 H 0.0 **** 0.06
30929 H 114.86617510143259 146.90708509812478 37.39854819275993 H 0.0 **** 0.06
30930 H 115.91190988249767 145.64797438639567 38.09813610725675 H 0.0 **** 0.06
30931 C 0.1794600992212736 85.65842464781204 161.68745849003295 C 0.0 **** -0.24
30932 H 0.6372329276938444 85.01089379394921 160.94007025238648 H 0.0 **** 0.06
30933 H 0.959636325974941 86.18543896111757 162.23810567799035 H 0.0 **** 0.06
30934 H -0.40872891003391487 85.05521143150736 162.3789090336441 H 0.0 **** 0.06
30935 H -0.4688603483064071 86.38183987936 161.19410127128998 H 0.0 **** 0.06
30936 C 272.6127789867336 178.29882117291504 183.62978557771464 C 0.0 **** -0.24
30937 H 271.93484499768516 177.76724344442903 184.29719847299867 H 0.0 **** 0.06
30938 H 272.41532583618937 178.00166909391112 182.59944376609218 H 0.0 **** 0.06
30939 H 273.64316094300335 178.0522161208117 183.8877959007068 H 0.0 **** 0.06
30940 H 272.4583812276221 179.3719046309156 183.73546228724484 H 0.0 **** 0.06
30941 C 169.1557954529864 49.41465872575975 98.01349198469958 C 0.0 **** -0.24
30942 H 168.2247514670749 49.70089631537331 97.524954897506 H 0.0 **** 0.06
30943 H 169.93539856350452 49.28338929562622 97.26271326941054 H 0.0 **** 0.06
30944 H 169.00960016144592 48.47849661883842 98.55335937703941 H 0.0 **** 0.06
30945 H 169.45336554626937 50.19521070266262 98.71419877360353 H 0.0 **** 0.06
30946 C 15.596832554988126 107.57102639045516 232.3764230041827 C 0.0 **** -0.24
30947 H 14.686361601412003 106.98442707768234 232.24851583156766 H 0.0 **** 0.06
30948 H 15.596897455169156 108.40043335066383 231.6687624621327 H 0.0 **** 0.06
30949 H 16.46548117950904 106.93813810235591 232.19545800565288 H 0.0 **** 0.06
30950 H 15.636533208011542 107.96169381196466 233.39360793195334 H 0.0 **** 0.06
30951 C 269.5491882559984 75.8705417261724 6.120366252900851 C 0.0 **** -0.24
30952 H 269.7644617581691 76.93651214387293 6.1825894849702365 H 0.0 **** 0.06
30953 H 269.9770206521531 75.36195472710403 6.983933304252147 H 0.0 **** 0.06
30954 H 269.9850696518687 75.4645287179797 5.207176130969074 H 0.0 **** 0.06
30955 H 268.47004516993815 75.718970655493 6.106374878499054 H 0.0 **** 0.06
30956 C 105.76851289324779 68.28565257578327 49.373571206669425 C 0.0 **** -0.24
30957 H 106.25609601383718 67.95038664964898 48.458097116473226 H 0.0 **** 0.06
30958 H 106.48350918006469 68.25753323560141 50.19644906343302 H 0.0 **** 0.06
30959 H 104.9286247196031 67.62820972125618 49.598130995144345 H 0.0 **** 0.06
30960 H 105.40679209154453 69.30532056048355 49.23968089975719 H 0.0 **** 0.06
30961 C 136.678642777424 142.063250342583 145.6499735079871 C 0.0 **** -0.24
30962 H 137.5025311626017 141.90732127413784 146.34609519452852 H 0.0 **** 0.06
30963 H 136.487612614097 143.13116834449553 145.5455466595309 H 0.0 **** 0.06
30964 H 135.7837359476982 141.56942254764655 146.0305785942283 H 0.0 **** 0.06
30965 H 136.93972730054 141.64330794655373 144.6786210459646 H 0.0 **** 0.06
30966 C 176.7593430823651 95.70474296700499 167.21945677458444 C 0.0 **** -0.24
30967 H 177.761278498328 96.10466181386408 167.37907410899095 H 0.0 **** 0.06
30968 H 176.80609483588125 94.88403401404881 166.50349417839465 H 0.0 **** 0.06
30969 H 176.1131029216868 96.49069907362946 166.82940805919668 H 0.0 **** 0.06
30970 H 176.35868978049672 95.34040907623248 168.16555037397978 H 0.0 **** 0.06
30971 C 182.73495092294377 207.88364557567394 197.10020510787865 C 0.0 **** -0.24
30972 H 182.35233743628623 208.00113120434963 198.11479980703672 H 0.0 **** 0.06
30973 H 182.68745448000624 208.84065389869463 196.58095708825408 H 0.0 **** 0.06
30974 H 182.12899224037835 207.14945704955954 196.56782588210132 H 0.0 **** 0.06
30975 H 183.76868949070496 207.54166121959827 197.1394175954132 H 0.0 **** 0.06
30976 C 36.482294932667685 93.91688858258604 36.98984227904347 C 0.0 **** -0.24
30977 H 36.79793225852404 92.87699673821663 36.90971502138984 H 0.0 **** 0.06
30978 H 37.28450761443992 94.50770783997763 37.43155119509041 H 0.0 **** 0.06
30979 H 35.59531332413229 93.97855684978495 37.62027625683916 H 0.0 **** 0.06
30980 H 36.250022334722075 94.30269150489792 35.99661677560826 H 0.0 **** 0.06
30981 C 141.24904493896236 168.59415214287912 159.78009949930907 C 0.0 **** -0.24
30982 H 141.6780156001167 169.2742668685787 159.04462925590587 H 0.0 **** 0.06
30983 H 140.43571785410435 168.03113468907083 159.3224492519327 H 0.0 **** 0.06
30984 H 140.86531574140858 169.16600640109272 160.62453301166272 H 0.0 **** 0.06
30985 H 142.01891680847135 167.90438467529003 160.12840755661114 H 0.0 **** 0.06
30986 C 244.952107275199 185.14312434848006 237.5981926876915 C 0.0 **** -0.24
30987 H 244.14297273441497 184.4226034074842 237.47866771713774 H 0.0 **** 0.06
30988 H 244.65773758405226 185.90116355208545 238.32457096674068 H 0.0 **** 0.06
30989 H 245.1594516305089 185.61762472861102 236.639655232885 H 0.0 **** 0.06
30990 H 245.84688969846118 184.62922768421765 237.9506355727094 H 0.0 **** 0.06
30991 C 196.38424966452703 262.54058707104855 104.88665339853526 C 0.0 **** -0.24
30992 H 196.6261944867219 261.4876239547744 104.74122049253504 H 0.0 **** 0.06
30993 H 196.92945697980446 263.142675136577 104.15939945584034 H 0.0 **** 0.06
30994 H 196.66777334793397 262.8422636689646 105.89503274268259 H 0.0 **** 0.06
30995 H 195.31274503896344 262.68866281883305 104.75073150129015 H 0.0 **** 0.06
30996 C 285.7091408017618 99.78874614559427 155.51693261683204 C 0.0 **** -0.24
30997 H 285.4346920761177 100.79088522448913 155.18935589586113 H 0.0 **** 0.06
30998 H 286.71313040063336 99.55325364633356 155.16448046949387 H 0.0 **** 0.06
30999 H 285.00172354297706 99.06689234045018 155.10896907040774 H 0.0 **** 0.06
31000 H 285.6859105347105 99.74393908467539 156.60580544334863 H 0.0 **** 0.06
31001 C 15.909551998236452 277.38101048806783 215.06210000732267 C 0.0 **** -0.24
31002 H 15.228785905452654 276.5376638242191 214.94891308818973 H 0.0 **** 0.06
31003 H 16.938663274547736 277.0346785316212 214.95327666762063 H 0.0 **** 0.06
31004 H 15.777958392221507 277.8238904658392 216.0493774751195 H 0.0 **** 0.06
31005 H 15.694951551845023 278.1273824633205 214.29726939022305 H 0.0 **** 0.06
31006 C 29.538654833346783 41.909097425613425 64.06255197344677 C 0.0 **** -0.24
31007 H 28.708993040518834 41.995685043507706 63.361355680506506 H 0.0 **** 0.06
31008 H 29.826648014469725 40.861517141430454 64.15716080612566 H 0.0 **** 0.06
31009 H 29.232914789534362 42.291174070839446 65.03608923971589 H 0.0 **** 0.06
31010 H 30.386163269210925 42.48756909485141 63.6947118866735 H 0.0 **** 0.06
31011 C 154.81140533879187 156.20775046885154 238.324168513975 C 0.0 **** -0.24
31012 H 155.88545036056087 156.3784960954186 238.38793030710713 H 0.0 **** 0.06
31013 H 154.47527816114194 155.6755153588163 239.21529402039897 H 0.0 **** 0.06
31014 H 154.58948725157262 155.61158699042107 237.43961901568986 H 0.0 **** 0.06
31015 H 154.29497783940076 157.16545680031106 238.25679958935655 H 0.0 **** 0.06
31016 C 104.26535178580082 174.45478720406652 142.85453110914307 C 0.0 **** -0.24
31017 H 104.55465714352283 174.78831960658965 143.85103996299804 H 0.0 **** 0.06
31018 H 104.86317249206542 174.97967894540864 142.10774906319577 H 0.0 **** 0.06
31019 H 103.20913091958849 174.66991433958026 142.69148158007997 H 0.0 **** 0.06
31020 H 104.43547453385116 173.38206715540719 142.7673514441145 H 0.0 **** 0.06
31021 C 3.146530811078719 134.70264405816803 40.64516168022462 C 0.0 **** -0.24
31022 H 2.311271307539414 135.0429188249872 41.25788837154255 H 0.0 **** 0.06
31023 H 3.983358518828993 135.39311331290406 40.75614794671057 H 0.0 **** 0.06
31024 H 2.838862969620095 134.66931256482758 39.59965899530448 H 0.0 **** 0.06
31025 H 3.451158939358038 133.7078445425276 40.96703427572723 H 0.0 **** 0.06
31026 C 283.75181370116724 221.7697690483647 98.3117960384647 C 0.0 **** -0.24
31027 H 283.7254457653237 222.25547507336654 97.33586789387334 H 0.0 **** 0.06
31028 H 283.13912201566313 220.8688661007542 98.28499816934684 H 0.0 **** 0.06
31029 H 283.36318796085106 222.45261157682162 99.067404710922 H 0.0 **** 0.06
31030 H 284.7798962712301 221.50460530991955 98.55614162526811 H 0.0 **** 0.06
31031 C 1.1656845509776304 21.979690269972764 254.89783082748824 C 0.0 **** -0.24
31032 H 1.94177559306587 21.347809738208497 254.4657856462991 H 0.0 **** 0.06
31033 H 0.38809161863861164 22.15816961352354 254.1543466577034 H 0.0 **** 0.06
31034 H 1.601016750941426 22.93077173714437 255.20465368991023 H 0.0 **** 0.06
31035 H 0.7318214502104468 21.481434203773745 255.76490409611972 H 0.0 **** 0.06
31036 C 198.97156826325596 309.98562981751064 184.8724904026675 C 0.0 **** -0.24
31037 H 198.43095645357204 310.92204890071815 184.7357661525361 H 0.0 **** 0.06
31038 H 200.01627899044934 310.19916964159916 185.1019127140176 H 0.0 **** 0.06
31039 H 198.91396728605167 309.3962173020657 183.95760824503947 H 0.0 **** 0.06
31040 H 198.52567308215384 309.42582398862487 185.694971572032 H 0.0 **** 0.06
31041 C 248.97651258401032 216.62053205398922 283.24502752291244 C 0.0 **** -0.24
31042 H 248.04469854204473 216.77199808785565 283.7912866084642 H 0.0 **** 0.06
31043 H 249.55517295478995 215.83326426181895 283.7269351313886 H 0.0 **** 0.06
31044 H 249.55071903923547 217.54605063703943 283.2437464965369 H 0.0 **** 0.06
31045 H 248.75113857018835 216.33028685988552 282.21792302989024 H 0.0 **** 0.06
31046 C 298.9761359909711 128.4506507728132 282.3309269602397 C 0.0 **** -0.24
31047 H 297.96636569428193 128.80018816933938 282.11502904977044 H 0.0 **** 0.06
31048 H 299.00385188722686 127.36263478599537 282.2706244575608 H 0.0 **** 0.06
31049 H 299.2637995872189 128.76737120128763 283.33340198493784 H 0.0 **** 0.06
31050 H 299.66884088628126 128.87273668182308 281.6029058321398 H 0.0 **** 0.06
31051 C 266.30350389552694 72.7195595949679 230.34108024587425 C 0.0 **** -0.24
31052 H 266.62785002337586 72.62598361431836 231.3768318903305 H 0.0 **** 0.06
31053 H 266.6990235720178 73.6437875617788 229.91870339398076 H 0.0 **** 0.06
31054 H 265.2141043721576 72.73895814255411 230.30149833559915 H 0.0 **** 0.06
31055 H 266.67264200437955 71.86916480972278 229.76643590131656 H 0.0 **** 0.06
31056 C 110.73242771813491 88.4614827732722 56.12666911755275 C 0.0 **** -0.24
31057 H 109.6880239353874 88.49930282014225 55.81858028589443 H 0.0 **** 0.06
31058 H 111.35483051975291 88.91848985865772 55.357176669543264 H 0.0 **** 0.06
31059 H 111.03209915137222 87.42340767326951 56.26912074781478 H 0.0 **** 0.06
31060 H 110.8543358429429 89.00618533048126 57.06372401995452 H 0.0 **** 0.06
31061 C 70.16486432148199 109.90040785531727 65.14369924610986 C 0.0 **** -0.24
31062 H 69.35405256638893 110.30676557033317 65.74992615410417 H 0.0 **** 0.06
31063 H 70.54345753769982 108.98994001196954 65.60749535390204 H 0.0 **** 0.06
31064 H 70.9677180714389 110.6334213604398 65.07188418747143 H 0.0 **** 0.06
31065 H 69.79048746003076 109.6715061454423 64.14548066945238 H 0.0 **** 0.06
31066 C 195.67412795592247 10.387047802088532 167.1251992360248 C 0.0 **** -0.24
31067 H 194.91388031949754 10.722694413751427 166.42094627962445 H 0.0 **** 0.06
31068 H 195.30184866734686 9.52515724807455 167.67996239190734 H 0.0 **** 0.06
31069 H 195.90747068203154 11.193606943828215 167.82032215562197 H 0.0 **** 0.06
31070 H 196.5758046405636 10.105395792816651 166.57954397770567 H 0.0 **** 0.06
31071 C 245.11602898542867 23.46786798669632 2.439782499583984 C 0.0 **** -0.24
31072 H 244.2429682810669 24.02409595168217 2.0987138749164984 H 0.0 **** 0.06
31073 H 245.54285206746627 23.96218870227503 3.3131326252463964 H 0.0 **** 0.06
31074 H 245.8576144508145 23.43325443010889 1.6425107496408629 H 0.0 **** 0.06
31075 H 244.8191807624772 22.453588234810297 2.704865624477364 H 0.0 **** 0.06
31076 C 209.07253069095515 123.30763053911761 299.27644369371046 C 0.0 **** -0.24
31077 H 209.811908987994 123.24629082637011 300.0736466251345 H 0.0 **** 0.06
31078 H 209.14294834105334 122.42102121601735 298.64566273619334 H 0.0 **** 0.06
31079 H 209.26004639368176 124.19776360607173 298.67501926846984 H 0.0 **** 0.06
31080 H 208.0740105988437 123.36611469991857 299.71040058279453 H 0.0 **** 0.06
31081 C 272.47613113982317 172.80975255397306 298.31590263872835 C 0.0 **** -0.24
31082 H 273.1201263041952 172.0258614905099 298.7135851446483 H 0.0 **** 0.06
31083 H 272.8301030246318 173.10451691291513 297.3281176284663 H 0.0 **** 0.06
31084 H 272.4985421257153 173.6720015287023 298.98304265964146 H 0.0 **** 0.06
31085 H 271.4548104904601 172.43670810507524 298.2403161340982 H 0.0 **** 0.06
31086 C 282.9336862030641 202.06153657597304 241.30264446201355 C 0.0 **** -0.24
31087 H 282.94891372111647 202.60024332433397 242.25106131136883 H 0.0 **** 0.06
31088 H 282.8255818340593 202.77284212880068 240.48280166401298 H 0.0 **** 0.06
31089 H 282.0946773224938 201.36648776210683 241.2933929670397 H 0.0 **** 0.06
31090 H 283.86514804155706 201.50871448487874 241.18443310494496 H 0.0 **** 0.06
31091 C 175.83359914738878 167.8000267133039 164.06655536329504 C 0.0 **** -0.24
31092 H 175.2345782649533 168.38831550978335 164.76256515478815 H 0.0 **** 0.06
31093 H 175.20152641009696 167.05587640214708 163.5819310559479 H 0.0 **** 0.06
31094 H 176.6344516600082 167.2991082693032 164.61049498831437 H 0.0 **** 0.06
31095 H 176.2643353137184 168.4587019859767 163.31270087585114 H 0.0 **** 0.06
31096 C 212.0246544830195 85.63988607922352 288.4907984119944 C 0.0 **** -0.24
31097 H 211.34381121560256 85.8938582954448 289.30303046445636 H 0.0 **** 0.06
31098 H 212.1842420460962 86.5168424174955 287.862797819612 H 0.0 **** 0.06
31099 H 211.59206364908465 84.83722631003857 287.8922895799301 H 0.0 **** 0.06
31100 H 212.9772230866603 85.30983469536164 288.90464075756336 H 0.0 **** 0.06
31101 C 27.430181379915922 127.92075685242762 168.0037355940787 C 0.0 **** -0.24
31102 H 27.668061748553953 128.89837127306393 168.42165821807862 H 0.0 **** 0.06
31103 H 26.98056878473443 127.29542182397546 168.7755716972095 H 0.0 **** 0.06
31104 H 28.342521277611382 127.44836976254612 167.64024460898798 H 0.0 **** 0.06
31105 H 26.72839565758926 128.04010435483013 167.1776530750111 H 0.0 **** 0.06
31106 C 47.43986541549867 45.39944749101912 137.98016701746488 C 0.0 **** -0.24
31107 H 46.95292330773614 46.26927652920884 137.53867842155938 H 0.0 **** 0.06
31108 H 48.47960080113921 45.36305098032474 137.65562430841743 H 0.0 **** 0.06
31109 H 46.926661968975736 44.49355727139425 137.65659247401902 H 0.0 **** 0.06
31110 H 47.39903064468774 45.47321645171078 139.06649708144616 H 0.0 **** 0.06
31111 C 57.722170085662015 199.14008571828532 5.0324919019375045 C 0.0 **** -0.24
31112 H 57.02833522458596 198.7446426306425 5.774297334466482 H 0.0 **** 0.06
31113 H 57.232566903436435 199.93092751856722 4.463438895004401 H 0.0 **** 0.06
31114 H 58.024861323227015 198.33995616965444 4.357010540196811 H 0.0 **** 0.06
31115 H 58.600474520283626 199.54307615303333 5.535144239302454 H 0.0 **** 0.06
31116 C 28.933178938962328 24.033524078324177 136.22083561117998 C 0.0 **** -0.24
31117 H 28.240423434220645 24.594150783927603 135.59255632506583 H 0.0 **** 0.06
31118 H 29.86309087516412 23.866921608291904 135.67619466299436 H 0.0 **** 0.06
31119 H 28.4883295303124 23.073712660548722 136.4834158765464 H 0.0 **** 0.06
31120 H 29.139650011337494 24.599242493689133 137.1286256280022 H 0.0 **** 0.06
31121 C 68.87189179751837 251.5343588516517 14.682825716761528 C 0.0 **** -0.24
31122 H 69.33396818067104 252.07401904766436 13.856166392152915 H 0.0 **** 0.06
31123 H 68.57427672857702 252.2422032039325 15.457111192719836 H 0.0 **** 0.06
31124 H 69.58667505303126 250.82178763737636 15.096084132595706 H 0.0 **** 0.06
31125 H 67.99383213110761 250.99962598565685 14.321195612378489 H 0.0 **** 0.06
31126 C 211.64367691662753 272.93612349907266 296.73855666692623 C 0.0 **** -0.24
31127 H 212.4553039757103 273.2999065190786 296.10886564829724 H 0.0 **** 0.06
31128 H 210.85195481904242 272.52681770455825 296.11006303738526 H 0.0 **** 0.06
31129 H 211.24682882954286 273.75995075484826 297.33200725419925 H 0.0 **** 0.06
31130 H 212.01942087711086 272.157830886184 297.4020409775662 H 0.0 **** 0.06
31131 C 278.2862865299578 143.4427017187397 182.91855865621528 C 0.0 **** -0.24
31132 H 277.67609722298516 143.83770980959895 183.7312996797839 H 0.0 **** 0.06
31133 H 277.652680930281 142.890233682804 182.22456415754658 H 0.0 **** 0.06
31134 H 279.0468993635261 142.77674930636962 183.32641874624045 H 0.0 **** 0.06
31135 H 278.7685341770493 144.26777056346458 182.39404558708407 H 0.0 **** 0.06
31136 C 202.4675660270634 314.0631507365134 248.5570396057753 C 0.0 **** -0.24
31137 H 203.09342632390786 313.8322603110881 249.41922511449783 H 0.0 **** 0.06
31138 H 201.56522759333393 313.4511168323483 248.58958509731625 H 0.0 **** 0.06
31139 H 203.01863509050503 313.8493906333812 247.64074005895742 H 0.0 **** 0.06
31140 H 202.19282662672595 315.1174543464495 248.57805167644347 H 0.0 **** 0.06
31141 C 98.1590414233587 252.1458165729809 301.10871889162206 C 0.0 **** -0.24
31142 H 97.57961749654206 252.61417988158362 301.90511708331354 H 0.0 **** 0.06
31143 H 98.57779064622002 251.20615352927499 301.4691808220025 H 0.0 **** 0.06
31144 H 98.96841936067904 252.8126523847385 300.80941351198595 H 0.0 **** 0.06
31145 H 97.51244841782892 251.9518441170522 300.2538291241865 H 0.0 **** 0.06
31146 C 200.9680732745793 218.61554433483718 236.73387423795936 C 0.0 **** -0.24
31147 H 201.8311546347802 218.8067363833838 236.0955392789149 H 0.0 **** 0.06
31148 H 200.25993418454726 217.97753685738283 236.20500484166234 H 0.0 **** 0.06
31149 H 200.4878919371589 219.56040670310102 236.9872935263577 H 0.0 **** 0.06
31150 H 201.29507523713482 218.11771881298176 237.64674104979076 H 0.0 **** 0.06
31151 C 27.84828782116574 16.773100094309413 125.09966191374662 C 0.0 **** -0.24
31152 H 27.712009299542444 17.8091631774533 124.78952355333183 H 0.0 **** 0.06
31153 H 27.370493264720125 16.11214108243344 124.37587748415683 H 0.0 **** 0.06
31154 H 27.395886106068815 16.625883329984944 126.08051626778166 H 0.0 **** 0.06
31155 H 28.912577587049725 16.54740046693165 125.15206720649996 H 0.0 **** 0.06
31156 C 257.1384529867019 156.74387962587952 174.9373794611201 C 0.0 **** -0.24
31157 H 257.8103006420596 157.29264296856405 175.59666306282935 H 0.0 **** 0.06
31158 H 257.08944057245697 157.24534362243008 173.96996124708483 H 0.0 **** 0.06
31159 H 256.14272128740345 156.7084480833397 175.37977898681078 H 0.0 **** 0.06
31160 H 257.5121126993266 155.72929199127003 174.8012776674601 H 0.0 **** 0.06
31161 C 262.6754861433816 132.3339728869529 172.04258078126742 C 0.0 **** -0.24
31162 H 263.25320112347293 131.48094242324444 171.68812940946646 H 0.0 **** 0.06
31163 H 262.86530858135154 133.19374773279992 171.3996686499542 H 0.0 **** 0.06
31164 H 262.96873323414445 132.57175150816332 173.0649455984751 H 0.0 **** 0.06
31165 H 261.61356562088986 132.08894221653455 172.0169073391355 H 0.0 **** 0.06
31166 C 209.17620881668788 27.90838867282784 36.862317267298295 C 0.0 **** -0.24
31167 H 208.32750955435398 28.07519875543869 37.52499917033788 H 0.0 **** 0.06
31168 H 208.83406167390868 27.414867600281497 35.95204717627507 H 0.0 **** 0.06
31169 H 209.90985948988433 27.277394775005206 37.36501871456721 H 0.0 **** 0.06
31170 H 209.63268905613361 28.86520399870281 36.6080387290358 H 0.0 **** 0.06
31171 C 207.52346494336433 244.2880953222715 67.08731710676508 C 0.0 **** -0.24
31172 H 208.0764031604653 245.160609841593 67.43492621261015 H 0.0 **** 0.06
31173 H 207.68424143708705 243.45850744363491 67.77577496338566 H 0.0 **** 0.06
31174 H 207.87293211764774 244.00937262688404 66.09358037119537 H 0.0 **** 0.06
31175 H 206.4603299018379 244.52633886620882 67.04489953490909 H 0.0 **** 0.06
31176 C 53.94655268883767 215.19937090437094 108.7604916387564 C 0.0 **** -0.24
31177 H 53.74501264131621 216.26596316755655 108.65992870117404 H 0.0 **** 0.06
31178 H 53.003989639502066 214.6581219459656 108.84108823888928 H 0.0 **** 0.06
31179 H 54.54552556598557 215.02478501603974 109.6537114355705 H 0.0 **** 0.06
31180 H 54.491978759926354 214.84928251221282 107.88318047622249 H 0.0 **** 0.06
31181 C 206.61384147586347 256.8918318289964 181.51479852681723 C 0.0 **** -0.24
31182 H 206.1939980330182 257.5843915155376 182.2440960741721 H 0.0 **** 0.06
31183 H 205.8173603845101 256.5117424118147 180.87506713316668 H 0.0 **** 0.06
31184 H 207.09078154223994 256.06130704382485 182.03493514619157 H 0.0 **** 0.06
31185 H 207.3534875131138 257.4120944190105 180.90533242284755 H 0.0 **** 0.06
31186 C 162.68478253804955 79.11669331754209 116.25041464864461 C 0.0 **** -0.24
31187 H 161.92936999856164 79.85966497331023 115.99174039316577 H 0.0 **** 0.06
31188 H 162.64405028558804 78.91518141487418 117.32106547346635 H 0.0 **** 0.06
31189 H 163.67190996788116 79.49583451671506 115.98798230780613 H 0.0 **** 0.06
31190 H 162.49063228927133 78.19554671124573 115.69923684692841 H 0.0 **** 0.06
31191 C 138.58482482673392 296.3220344303342 198.6518634776525 C 0.0 **** -0.24
31192 H 137.86015298329932 296.2606805181874 197.83945177755908 H 0.0 **** 0.06
31193 H 139.57259660614548 296.05263296731056 198.27839177607518 H 0.0 **** 0.06
31194 H 138.29613486657146 295.6344304184205 199.44718616828845 H 0.0 **** 0.06
31195 H 138.60743581493094 297.33984223415115 199.0410746887755 H 0.0 **** 0.06
31196 C 61.12214552773784 296.4801002347853 5.5102154142548585 C 0.0 **** -0.24
31197 H 61.90981490658979 296.3922741792135 4.762248248383429 H 0.0 **** 0.06
31198 H 60.33732746581828 297.1385151883534 5.135957862667794 H 0.0 **** 0.06
31199 H 61.537995932946075 296.8939757858984 6.428405925532147 H 0.0 **** 0.06
31200 H 60.702645788246826 295.49411562899184 5.714020916538132 H 0.0 **** 0.06
31201 C 61.14248195826755 115.80650666670837 142.8449433218989 C 0.0 **** -0.24
31202 H 61.88962598070418 116.12768879001175 143.57116932420712 H 0.0 **** 0.06
31203 H 61.24167707710413 114.73452072135908 142.6723605465201 H 0.0 **** 0.06
31204 H 61.29351032384372 116.3424897169813 141.90806982388642 H 0.0 **** 0.06
31205 H 60.146327358554174 116.02203385742814 143.23100729613884 H 0.0 **** 0.06
31206 C 137.5045287928984 175.3730294238958 67.74809455106214 C 0.0 **** -0.24
31207 H 137.4072531640315 175.6699775329492 66.70373559768083 H 0.0 **** 0.06
31208 H 137.3697231479994 176.24522958110822 68.38796772200163 H 0.0 **** 0.06
31209 H 138.49425243575823 174.94864050946984 67.91568186682755 H 0.0 **** 0.06
31210 H 136.74484842206002 174.62698009543777 67.98542026032959 H 0.0 **** 0.06
31211 C 177.57076041084815 1.8506414923302117 74.97523968156815 C 0.0 **** -0.24
31212 H 177.94808320586554 1.035039849513268 74.35742027119363 H 0.0 **** 0.06
31213 H 176.52537723588875 1.664899745330132 75.22312952384618 H 0.0 **** 0.06
31214 H 177.65351709560696 2.7891243611208125 74.42814226729374 H 0.0 **** 0.06
31215 H 178.15653925901586 1.9113855506169415 75.89280965346705 H 0.0 **** 0.06
31216 C 198.87766946012368 174.83291010511522 101.72365945129866 C 0.0 **** -0.24
31217 H 198.47606858525216 175.45413746421536 102.52409224337708 H 0.0 **** 0.06
31218 H 198.80818834342728 173.78233117755457 102.00956092235103 H 0.0 **** 0.06
31219 H 199.92164717291456 175.09409821892427 101.54985020150392 H 0.0 **** 0.06
31220 H 198.30471690546023 174.9991123477434 100.81220702356535 H 0.0 **** 0.06
31221 C 37.55206719781128 125.39368634170975 259.50124147190803 C 0.0 **** -0.24
31222 H 37.24400678205308 124.50985280660962 260.0593027675402 H 0.0 **** 0.06
31223 H 37.824326691882305 126.1864214361492 260.1975152574919 H 0.0 **** 0.06
31224 H 36.72919629553752 125.7309299010956 258.8704692368018 H 0.0 **** 0.06
31225 H 38.4109527938877 125.14646143057527 258.8767907300604 H 0.0 **** 0.06
31226 C 9.626058583160386 166.43529101760686 111.21250133766324 C 0.0 **** -0.24
31227 H 8.969131411376111 166.85351429396417 111.97495745487845 H 0.0 **** 0.06
31228 H 9.351108660567718 166.83466630041482 110.23664465233438 H 0.0 **** 0.06
31229 H 9.52546150721804 165.34943623142942 111.20280768222833 H 0.0 **** 0.06
31230 H 10.658276034589676 166.7021072940068 111.43728690983366 H 0.0 **** 0.06
31231 C 11.155335729315894 44.47967829396043 259.5698644694558 C 0.0 **** -0.24
31232 H 11.40150090057675 43.458940523481886 259.8617881934084 H 0.0 **** 0.06
31233 H 12.026159553925979 45.11869725447613 259.71524666658263 H 0.0 **** 0.06
31234 H 10.330029427736235 44.843712390170396 260.1826417862814 H 0.0 **** 0.06
31235 H 10.862559603470302 44.496063964277624 258.5194393147521 H 0.0 **** 0.06
31236 C 220.14177165692038 171.26368685670224 287.18846943388286 C 0.0 **** -0.24
31237 H 220.22710348139086 170.24525895849456 287.56749772569293 H 0.0 **** 0.06
31238 H 220.68814608025298 171.9428895999721 287.8437479838809 H 0.0 **** 0.06
31239 H 219.09098416491503 171.55287069503152 287.15952627297577 H 0.0 **** 0.06
31240 H 220.55980259397217 171.31283106944085 286.18280232499706 H 0.0 **** 0.06
31241 C 47.32445833697818 298.9654121344199 289.9398632980483 C 0.0 **** -0.24
31242 H 47.19989452500613 299.6546301210682 290.77523972509766 H 0.0 **** 0.06
31243 H 47.46986231075405 299.5330248725545 289.0203716901687 H 0.0 **** 0.06
31244 H 46.43428917170755 298.34325730175306 289.8467527640883 H 0.0 **** 0.06
31245 H 48.19438863027011 298.3328773704055 290.117321485445 H 0.0 **** 0.06
31246 C 89.14845367039365 304.4939711308224 143.49597480261826 C 0.0 **** -0.24
31247 H 88.505118713826 303.9174324399066 144.15963632422873 H 0.0 **** 0.06
31248 H 88.62247760024667 304.69290078902395 142.56239057325544 H 0.0 **** 0.06
31249 H 90.0571167932456 303.9270619367419 143.28813675399968 H 0.0 **** 0.06
31250 H 89.41149789345982 305.4380270006267 143.9739450996914 H 0.0 **** 0.06
31251 C 16.554795325496343 233.3811674521375 109.73330909253644 C 0.0 **** -0.24
31252 H 17.35748734628129 232.64458586631446 109.70882574571303 H 0.0 **** 0.06
31253 H 15.951692114054737 233.29195097997444 108.8289743681436 H 0.0 **** 0.06
31254 H 16.98294780712787 234.38205833409876 109.7870421762849 H 0.0 **** 0.06
31255 H 15.927809511609226 233.20710667968714 110.60779064564508 H 0.0 **** 0.06
31256 C 312.9905641696138 142.58579530288864 139.84636516038435 C 0.0 **** -0.24
31257 H 313.6602791751002 141.8697651297879 140.32385124140202 H 0.0 **** 0.06
31258 H 312.1955238550972 142.85704110825912 140.5406028424307 H 0.0 **** 0.06
31259 H 312.5577384078208 142.13698431752755 138.95304052542994 H 0.0 **** 0.06
31260 H 313.5522827194259 143.47795622819083 139.56945451711871 H 0.0 **** 0.06
31261 C 286.53066273787226 101.41862472958437 170.52533453568424 C 0.0 **** -0.24
31262 H 285.95909160086296 101.33705560051274 169.6006533669983 H 0.0 **** 0.06
31263 H 286.12605355327105 102.22882374624604 171.13188899391048 H 0.0 **** 0.06
31264 H 287.57484545905254 101.62567000236433 170.29022168751402 H 0.0 **** 0.06
31265 H 286.4614980824993 100.48166617042915 171.07861950923086 H 0.0 **** 0.06
31266 C 268.56488709619947 7.320010137693799 27.99208772484718 C 0.0 **** -0.24
31267 H 268.16794954620707 6.306830076464763 28.055916363933306 H 0.0 **** 0.06
31268 H 268.8308720143357 7.669373308347488 28.98912320203044 H 0.0 **** 0.06
31269 H 267.81001080883584 7.979827801533645 27.56448301143041 H 0.0 **** 0.06
31270 H 269.4511872722286 7.32325202641691 27.357038245413264 H 0.0 **** 0.06
31271 C 279.04010798706736 109.28003681316721 244.20072944933736 C 0.0 **** -0.24
31272 H 279.9166853872033 108.97382797045961 244.77146104578804 H 0.0 **** 0.06
31273 H 278.88621820346646 110.35310674970907 244.31743934093393 H 0.0 **** 0.06
31274 H 278.16322136081664 108.7454712689381 244.5668726951977 H 0.0 **** 0.06
31275 H 279.19365334156913 109.04700483239301 243.14697033510583 H 0.0 **** 0.06
31276 C 11.627293194956835 44.900576085250805 254.14930699933376 C 0.0 **** -0.24
31277 H 11.258440750796282 45.909586472155695 253.96491268343843 H 0.0 **** 0.06
31278 H 10.796990670728718 44.26136837195094 254.45074616541152 H 0.0 **** 0.06
31279 H 12.37376388805761 44.926089288048104 254.9428798873704 H 0.0 **** 0.06
31280 H 12.077627479537227 44.5055221336024 253.2380497565286 H 0.0 **** 0.06
31281 C 161.1198697515846 275.0407328479446 87.28856791237368 C 0.0 **** -0.24
31282 H 162.07766065280157 275.02930896980934 87.80942339863267 H 0.0 **** 0.06
31283 H 161.16405230879184 275.752422165494 86.46411623568804 H 0.0 **** 0.06
31284 H 160.3325456827776 275.33603789275446 87.98297276290506 H 0.0 **** 0.06
31285 H 160.90652174276545 274.04565179241774 86.8995105061289 H 0.0 **** 0.06
31286 C 38.33968310984187 99.31301708747154 93.50781851989876 C 0.0 **** -0.24
31287 H 37.79007619440691 99.56714975970363 94.41491012469572 H 0.0 **** 0.06
31288 H 37.74341444956366 98.63140413997263 92.90049502419058 H 0.0 **** 0.06
31289 H 39.28103496283265 98.83272821447443 93.77624102407742 H 0.0 **** 0.06
31290 H 38.543194072074556 100.22098605035725 92.94101873509544 H 0.0 **** 0.06
31291 C 191.82443008652888 314.073160012095 262.90928659629617 C 0.0 **** -0.24
31292 H 191.68963320549 314.5118934953696 261.9201252919896 H 0.0 **** 0.06
31293 H 192.50542011807465 314.69391153774524 263.49184772774754 H 0.0 **** 0.06
31294 H 192.24099974615496 313.0713253043772 262.80798366364553 H 0.0 **** 0.06
31295 H 190.86022910472184 314.0166791658545 263.4159390780248 H 0.0 **** 0.06
31296 C 149.22819178391114 132.09167935973622 134.24877402576362 C 0.0 **** -0.24
31297 H 149.04765057683176 132.45163784705994 135.2615317009873 H 0.0 **** 0.06
31298 H 150.3016980520369 132.00143760825063 134.08098227603898 H 0.0 **** 0.06
31299 H 148.80577533599615 132.79550902730549 133.53290009458001 H 0.0 **** 0.06
31300 H 148.75766130409465 131.11659166224229 134.12047202969526 H 0.0 **** 0.06
31301 C 85.48167675336822 259.32725520055453 168.2389407678608 C 0.0 **** -0.24
31302 H 86.46767498477467 259.3703818447077 167.7756374839634 H 0.0 **** 0.06
31303 H 84.76223164484654 258.926890631748 167.524723505856 H 0.0 **** 0.06
31304 H 85.17815039834773 260.32960414098426 168.53884858269322 H 0.0 **** 0.06
31305 H 85.52180293079303 258.681911185181 169.11662199872035 H 0.0 **** 0.06
31306 C 182.11662413803032 167.51817399946856 204.9742069686701 C 0.0 **** -0.24
31307 H 182.42680973939576 167.75559271623416 205.99185503945483 H 0.0 **** 0.06
31308 H 181.71545404274838 168.41280882923536 204.4983021204353 H 0.0 **** 0.06
31309 H 181.35012106663248 166.7441997554539 204.99927202358987 H 0.0 **** 0.06
31310 H 182.97591346988628 167.15881483475573 204.40705867266354 H 0.0 **** 0.06
31311 C 24.963911719672495 227.12487617638752 157.20043127654083 C 0.0 **** -0.24
31312 H 23.992841244351723 227.17569613089412 156.70771044770396 H 0.0 **** 0.06
31313 H 24.915741404850763 226.41495749997551 158.02525030940086 H 0.0 **** 0.06
31314 H 25.228838582846947 228.11097814549652 157.58301462361766 H 0.0 **** 0.06
31315 H 25.71748001026674 226.79947750450185 156.48312876960796 H 0.0 **** 0.06
31316 C 39.27991513099573 216.403278946608 273.32407661683084 C 0.0 **** -0.24
31317 H 39.019811619048596 216.7482576770867 272.3227723704559 H 0.0 **** 0.06
31318 H 38.499471555887396 215.73465540368971 273.6907164196342 H 0.0 **** 0.06
31319 H 39.36705456275132 217.26008457103876 273.99190383214705 H 0.0 **** 0.06
31320 H 40.229008148528806 215.86987488631073 273.29034391811024 H 0.0 **** 0.06
31321 C 298.0940292185509 213.65057049371484 240.23823926140693 C 0.0 **** -0.24
31322 H 297.2918468651075 214.25464169086177 240.6608653439311 H 0.0 **** 0.06
31323 H 298.6159554645699 214.2248799990724 239.47242143811366 H 0.0 **** 0.06
31324 H 297.67418127147755 212.74789350375517 239.79410380435425 H 0.0 **** 0.06
31325 H 298.79537230247627 213.37508095491359 241.02621371859746 H 0.0 **** 0.06
31326 C 103.35648097879962 102.61657278157912 238.17514137566192 C 0.0 **** -0.24
31327 H 104.17703502117874 101.9058186026985 238.26679237225838 H 0.0 **** 0.06
31328 H 102.4076218930739 102.07942542715782 238.18804521927285 H 0.0 **** 0.06
31329 H 103.45207779912252 103.16362409303264 237.23776874117797 H 0.0 **** 0.06
31330 H 103.38884249570691 103.3176618802527 239.01015524717894 H 0.0 **** 0.06
31331 C 97.99633085242777 308.4167336245809 262.71410835048715 C 0.0 **** -0.24
31332 H 98.92869057660664 308.3535210374241 262.1523638651116 H 0.0 **** 0.06
31333 H 97.5083591775414 307.44170203530626 262.7176293697628 H 0.0 **** 0.06
31334 H 97.33965779156975 309.1508558309217 262.2473970621457 H 0.0 **** 0.06
31335 H 98.21053114893175 308.7193597177227 263.7393498014824 H 0.0 **** 0.06
31336 C 1.4477225651966847 85.29496149178487 289.0242450115763 C 0.0 **** -0.24
31337 H 0.8958694773963174 86.09662310591477 288.5329740294555 H 0.0 **** 0.06
31338 H 0.8139091344074103 84.41149686206734 289.09965145750664 H 0.0 **** 0.06
31339 H 1.7427435396782016 85.61728283764683 290.0235757532524 H 0.0 **** 0.06
31340 H 2.3372764826251426 85.05705345612614 288.44177617951084 H 0.0 **** 0.06
31341 C 108.55716574744912 243.92681678311823 288.37007046918177 C 0.0 **** -0.24
31342 H 108.4566669876879 244.90310439829443 288.8436967345387 H 0.0 **** 0.06
31343 H 109.12143456434714 243.26194499801787 289.02452028738696 H 0.0 **** 0.06
31344 H 109.08262586099968 244.03587315458756 287.4208746354483 H 0.0 **** 0.06
31345 H 107.56677801261085 243.50679435832473 288.1905136433288 H 0.0 **** 0.06
31346 C 39.967893564262795 279.7929806466342 103.62592785861113 C 0.0 **** -0.24
31347 H 39.25611663292935 280.31314727586357 104.2679127754053 H 0.0 **** 0.06
31348 H 40.654093282704906 279.211583120073 104.24102476850771 H 0.0 **** 0.06
31349 H 40.530105422613815 280.5219314338892 103.04321444612148 H 0.0 **** 0.06
31350 H 39.429061925314386 279.12690404453434 102.95224709313098 H 0.0 **** 0.06
31351 C 208.92056428272053 128.0852729362707 85.61781218005316 C 0.0 **** -0.24
31352 H 208.74313114108168 128.8305823046047 86.39315325064916 H 0.0 **** 0.06
31353 H 209.13573524314995 127.12221264954377 86.08315904196968 H 0.0 **** 0.06
31354 H 209.76950401952763 128.39161043874452 85.00669925486679 H 0.0 **** 0.06
31355 H 208.03434385002137 127.99644934617527 84.99063193656144 H 0.0 **** 0.06
31356 C 126.59825075659174 77.88108862846465 115.35056892301421 C 0.0 **** -0.24
31357 H 126.36409620341095 76.90956336990524 115.78511427682832 H 0.0 **** 0.06
31358 H 126.58177643618029 78.64157783759993 116.13172134905074 H 0.0 **** 0.06
31359 H 125.85712045850954 78.12556711131805 114.58982027780601 H 0.0 **** 0.06
31360 H 127.5884509077346 77.84648150700596 114.8971073984666 H 0.0 **** 0.06
31361 C 310.5282164048108 125.62400507361681 161.6336521525178 C 0.0 **** -0.24
31362 H 309.48165365210957 125.77629502235428 161.89824528901738 H 0.0 **** 0.06
31363 H 310.5955786312465 124.89086155996404 160.82876130475466 H 0.0 **** 0.06
31364 H 311.07434923660026 125.26003340697596 162.5041801003203 H 0.0 **** 0.06
31365 H 310.95992944076 126.56777649046168 161.3019885990758 H 0.0 **** 0.06
31366 C 164.40188817452628 124.66892561115458 193.60800929899398 C 0.0 **** -0.24
31367 H 165.07187463489595 124.00776142007126 194.1583050455132 H 0.0 **** 0.06
31368 H 163.59075026100084 124.08342497904411 193.17430358266552 H 0.0 **** 0.06
31369 H 164.95632345481857 125.16749027383008 192.8126137059918 H 0.0 **** 0.06
31370 H 163.9895709240867 125.41500996975952 194.28676695930466 H 0.0 **** 0.06
31371 C 208.0726735531029 275.05030976731086 130.29592102656625 C 0.0 **** -0.24
31372 H 208.42442854908148 274.0266225770055 130.16124245804738 H 0.0 **** 0.06
31373 H 208.53351998655927 275.69407478502114 129.54615671657075 H 0.0 **** 0.06
31374 H 208.34572052364936 275.39985833786193 131.2921376212499 H 0.0 **** 0.06
31375 H 206.9893576492641 275.0783991727387 130.18473208137468 H 0.0 **** 0.06
31376 C 16.37496596143903 166.56285772133214 209.49017881701968 C 0.0 **** -0.24
31377 H 16.69372297655329 165.64138120478577 209.00272692631216 H 0.0 **** 0.06
31378 H 15.461577254738728 166.37766007116477 210.05611366679852 H 0.0 **** 0.06
31379 H 16.18686416431619 167.32596423098727 208.73543414800295 H 0.0 **** 0.06
31380 H 17.15809427633488 166.9055362722699 210.16620899491392 H 0.0 **** 0.06
31381 C 113.04520138989201 292.145693034589 117.74886643508447 C 0.0 **** -0.24
31382 H 113.34373583829728 291.4949041657332 118.57028799432638 H 0.0 **** 0.06
31383 H 113.61615594443091 291.8901528114896 116.85632823415202 H 0.0 **** 0.06
31384 H 113.23841463699375 293.1838301515297 118.01906324733983 H 0.0 **** 0.06
31385 H 111.98141161272133 292.0147889697729 117.54977402643115 H 0.0 **** 0.06
31386 C 47.39426566081073 227.56380575591402 131.58973397793218 C 0.0 **** -0.24
31387 H 46.796030327290225 226.92812360631996 130.93672782047977 H 0.0 **** 0.06
31388 H 48.26470528899452 227.00800826229064 131.9389092226127 H 0.0 **** 0.06
31389 H 46.792952113792865 227.87167795878804 132.44514386491764 H 0.0 **** 0.06
31390 H 47.72100131413603 228.44511469168475 131.03844302092318 H 0.0 **** 0.06
31391 C 232.6808972970348 181.92988600684328 22.029872404431927 C 0.0 **** -0.24
31392 H 233.74990744530277 182.13751751397763 22.07839879666787 H 0.0 **** 0.06
31393 H 232.42899709465655 181.1513135464412 22.750413565688575 H 0.0 **** 0.06
31394 H 232.4216812454507 181.59329936346393 21.0258167175636 H 0.0 **** 0.06
31395 H 232.12358286623194 182.83660316049315 22.264774464001817 H 0.0 **** 0.06
31396 C 307.4358000553644 38.31851295821957 18.689957548839644 C 0.0 **** -0.24
31397 H 307.0081621556923 38.96969412291372 17.92672018504885 H 0.0 **** 0.06
31398 H 307.0769610460337 38.626870145451335 19.67184387613085 H 0.0 **** 0.06
31399 H 308.52311207567413 38.39096190948919 18.660973571469242 H 0.0 **** 0.06
31400 H 307.1356511211242 37.289125437339806 18.498962023920313 H 0.0 **** 0.06
31401 C 114.02591582081914 1.1522112927405033 130.10614591389637 C 0.0 **** -0.24
31402 H 114.3812609219842 2.1654220629116736 129.91974542565387 H 0.0 **** 0.06
31403 H 113.94404563205518 0.6162303363320234 129.16072958492 H 0.0 **** 0.06
31404 H 113.04803073792735 1.1932981143921921 130.58781695934596 H 0.0 **** 0.06
31405 H 114.72948454749121 0.6350519613859262 130.75827981207783 H 0.0 **** 0.06
31406 C 77.76805976147529 212.8192462115166 184.74168517210353 C 0.0 **** -0.24
31407 H 77.19446818259203 211.89411011182457 184.8017455531667 H 0.0 **** 0.06
31408 H 78.46492977613246 212.8692435906819 185.57874896766867 H 0.0 **** 0.06
31409 H 77.08867117317124 213.67066998012473 184.7825026012228 H 0.0 **** 0.06
31410 H 78.32324958249202 212.842594188801 183.80475268900926 H 0.0 **** 0.06
31411 C 237.06492883361267 142.67009816949752 187.07942893710856 C 0.0 **** -0.24
31412 H 236.72219946169622 143.51594222251637 186.48222564497422 H 0.0 **** 0.06
31413 H 236.43935066597675 142.5763667515796 187.96759656281012 H 0.0 **** 0.06
31414 H 238.09997008837357 142.83238386561743 187.378357521856 H 0.0 **** 0.06
31415 H 236.99544904131386 141.7570192736775 186.48822521737145 H 0.0 **** 0.06
31416 C 53.32248601999109 132.84236005271669 135.43102605896166 C 0.0 **** -0.24
31417 H 53.615860984187236 132.2329864405092 136.28576009975868 H 0.0 **** 0.06
31418 H 54.21344950331215 133.25064235892685 134.95407220450258 H 0.0 **** 0.06
31419 H 52.684880717669444 133.6592961548879 135.76943887627144 H 0.0 **** 0.06
31420 H 52.77684958027504 132.2266973876861 134.71616124161363 H 0.0 **** 0.06
31421 C 274.0311478596351 109.75097132796543 104.31414683600138 C 0.0 **** -0.24
31422 H 275.1103045396551 109.86995226082243 104.41588056665128 H 0.0 **** 0.06
31423 H 273.7501703882163 108.73292996568748 104.58369793466517 H 0.0 **** 0.06
31424 H 273.740572073634 109.94778074603497 103.28173067971406 H 0.0 **** 0.06
31425 H 273.524906991281 110.45486507438082 104.97461116226154 H 0.0 **** 0.06
31426 C 109.06737167287926 171.5869779304699 69.44771682135641 C 0.0 **** -0.24
31427 H 108.97046977585441 172.42129405686342 70.14317924177345 H 0.0 **** 0.06
31428 H 108.0787881984331 171.2960819981148 69.0906907350413 H 0.0 **** 0.06
31429 H 109.53358722573961 170.7432755490682 69.95589365752772 H 0.0 **** 0.06
31430 H 109.68543662545639 171.88922591831061 68.60193066580064 H 0.0 **** 0.06
31431 C 201.10737880629927 52.09418057755366 260.5549503566612 C 0.0 **** -0.24
31432 H 201.60308970332375 51.2641239896233 260.05161834180075 H 0.0 **** 0.06
31433 H 201.41636212457604 53.033326787544524 260.0963120962259 H 0.0 **** 0.06
31434 H 201.38459742790553 52.09595622730467 261.6101508318059 H 0.0 **** 0.06
31435 H 200.02726763729947 51.98189453728557 260.464115038704 H 0.0 **** 0.06
31436 C 99.26998393611987 14.88296713345136 23.223890105982946 C 0.0 **** -0.24
31437 H 99.93904001338353 14.262171297220561 22.62609845717492 H 0.0 **** 0.06
31438 H 99.62279937150541 15.914112275881052 23.209772280381458 H 0.0 **** 0.06
31439 H 99.25572142005248 14.51610221567239 24.250307206231895 H 0.0 **** 0.06
31440 H 98.26370458246853 14.83578891531215 22.807488342545895 H 0.0 **** 0.06
31441 C 193.81617706335686 125.06902644609502 238.99859351929848 C 0.0 **** -0.24
31442 H 193.14709220165042 124.5936958237165 238.28083269540144 H 0.0 **** 0.06
31443 H 193.8977210367235 124.4423993814822 239.8880346149664 H 0.0 **** 0.06
31444 H 193.4180198361891 126.04494716649148 239.2756673689767 H 0.0 **** 0.06
31445 H 194.80184516633693 125.19181939693826 238.54914982509467 H 0.0 **** 0.06
31446 C 235.07024875112518 20.578656339382547 159.61906943279627 C 0.0 **** -0.24
31447 H 235.77643637326003 20.001296095545115 160.21512776689502 H 0.0 **** 0.06
31448 H 235.56281246540317 21.4735554324796 159.2376117622565 H 0.0 **** 0.06
31449 H 234.22138386996744 20.86701659297725 160.23834410826032 H 0.0 **** 0.06
31450 H 234.72002807948695 19.972121276777216 158.7830765770392 H 0.0 **** 0.06
31451 C 187.9695342261075 232.88958296038766 256.09207822620925 C 0.0 **** -0.24
31452 H 188.1495794393391 233.71010552365362 255.3969366594219 H 0.0 **** 0.06
31453 H 187.0705601388393 233.0971347378478 256.6730069677707 H 0.0 **** 0.06
31454 H 188.8227295595201 232.7886714139255 256.76284564682425 H 0.0 **** 0.06
31455 H 187.83517348733574 231.9640451202573 255.53281241697977 H 0.0 **** 0.06
31456 C 145.46260393511358 296.1299474839428 276.1750458960795 C 0.0 **** -0.24
31457 H 144.83441147200648 295.38913371233576 276.6710938184637 H 0.0 **** 0.06
31458 H 144.90046548458798 297.054150623286 276.0449526026896 H 0.0 **** 0.06
31459 H 145.77030878887572 295.75080265432854 275.2008927931438 H 0.0 **** 0.06
31460 H 146.34589641406666 296.32329238350826 276.7849012090204 H 0.0 **** 0.06
31461 C 28.126148289640525 312.9209124199691 240.4552872203871 C 0.0 **** -0.24
31462 H 28.73084811223481 312.37743586649555 241.1821976112101 H 0.0 **** 0.06
31463 H 28.331341922918455 312.5392953402246 239.45514706677693 H 0.0 **** 0.06
31464 H 28.37326285352691 313.98139642981977 240.4978595636946 H 0.0 **** 0.06
31465 H 27.070309718703072 312.7837894779791 240.68722160257366 H 0.0 **** 0.06
31466 C 40.56212215996038 143.07190868460125 247.04189630282286 C 0.0 **** -0.24
31467 H 40.368265674021245 143.7729104100447 246.2295788789902 H 0.0 **** 0.06
31468 H 39.66185600334194 142.4910329473775 247.24270859235946 H 0.0 **** 0.06
31469 H 40.84675585327227 143.62363055062724 247.93744975744787 H 0.0 **** 0.06
31470 H 41.371781204607146 142.40011119577082 246.75561895728225 H 0.0 **** 0.06
31471 C 83.71500839309235 280.827771179861 234.10248031794328 C 0.0 **** -0.24
31472 H 83.16695002796271 280.0089287792713 233.63597683122225 H 0.0 **** 0.06
31473 H 83.01833525091658 281.6202518944715 234.3775897583737 H 0.0 **** 0.06
31474 H 84.45285541382273 281.218416334149 233.40127814303864 H 0.0 **** 0.06
31475 H 84.22135313630912 280.4616482704969 234.9962276934404 H 0.0 **** 0.06
31476 C 31.309690375609648 225.35575399863367 71.46634374343103 C 0.0 **** -0.24
31477 H 32.30531926468038 225.77363352441895 71.31690423157505 H 0.0 **** 0.06
31478 H 30.896973576802964 225.04858757899558 70.50571062830915 H 0.0 **** 0.06
31479 H 30.663769706347438 226.10917753608499 71.91682549754367 H 0.0 **** 0.06
31480 H 31.376171490611085 224.49132090183565 72.12729611262316 H 0.0 **** 0.06
31481 C 46.77141304997221 211.8518659996668 54.859116854652086 C 0.0 **** -0.24
31482 H 47.218725110962396 211.56738487543106 53.90623031152333 H 0.0 **** 0.06
31483 H 47.46078367366667 212.49743422451718 55.40478265674341 H 0.0 **** 0.06
31484 H 46.5688449881373 210.95703196761764 55.446657985328585 H 0.0 **** 0.06
31485 H 45.839024891551674 212.3869008885942 54.67819604134084 H 0.0 **** 0.06
31486 C 250.18920627788975 212.88933743986328 93.97003476323528 C 0.0 **** -0.24
31487 H 250.38374843460542 213.35679314306077 94.93572201509335 H 0.0 **** 0.06
31488 H 250.2002287738917 211.80468211127612 94.08324553393561 H 0.0 **** 0.06
31489 H 250.96024078820136 213.18857814601841 93.2607075259919 H 0.0 **** 0.06
31490 H 249.21375247963834 213.20738169451883 93.60262751308505 H 0.0 **** 0.06
31491 C 42.13271341032896 157.28862387358384 217.13128769600735 C 0.0 **** -0.24
31492 H 42.72588805328621 156.5370400175592 217.65124143979762 H 0.0 **** 0.06
31493 H 42.389025866719834 158.27883335250402 217.5088647947922 H 0.0 **** 0.06
31494 H 41.073136489441936 157.09707233016542 217.30260934606457 H 0.0 **** 0.06
31495 H 42.34280323186783 157.24154979410667 216.06243520337492 H 0.0 **** 0.06
31496 C 73.16605147323483 265.7552270328887 83.65629119385352 C 0.0 **** -0.24
31497 H 72.70262434000028 266.00012550504937 82.70052219401583 H 0.0 **** 0.06
31498 H 74.1891507682964 265.4186832655093 83.48718626423596 H 0.0 **** 0.06
31499 H 72.59804479296386 264.96265275143213 84.14199250455636 H 0.0 **** 0.06
31500 H 73.17415821740497 266.6395671733876 84.29324264044698 H 0.0 **** 0.06
31501 C 220.88946768681927 21.83361015021316 286.2037859954345 C 0.0 **** -0.24
31502 H 220.80618524120382 20.814304008305783 286.58152846796145 H 0.0 **** 0.06
31503 H 221.30001208569198 22.476812672375758 286.9825325297323 H 0.0 **** 0.06
31504 H 219.90264811701 22.19529075934298 285.91606282909936 H 0.0 **** 0.06
31505 H 221.54924511785245 21.84608336621534 285.33648644604136 H 0.0 **** 0.06
31506 C 275.25745645453424 108.67244416154838 263.5763255538536 C 0.0 **** -0.24
31507 H 274.682477021499 107.75185071155028 263.4810643490424 H 0.0 **** 0.06
31508 H 276.3222006911753 108.43749390535098 263.57080819573287 H 0.0 **** 0.06
31509 H 274.9989528814761 109.16669823259255 264.51272940117985 H 0.0 **** 0.06
31510 H 275.02594706673995 109.33246967815757 262.74011680455214 H 0.0 **** 0.06
31511 C 193.83514358795446 129.23187635743875 195.73087594815973 C 0.0 **** -0.24
31512 H 193.9964466874411 130.19509386204103 196.2147237527662 H 0.0 **** 0.06
31513 H 193.65129151174818 129.38629946186464 194.66716768297022 H 0.0 **** 0.06
31514 H 192.97224348071035 128.7398936594473 196.180600067267 H 0.0 **** 0.06
31515 H 194.7188828894324 128.60725422928363 195.86095051840954 H 0.0 **** 0.06
31516 C 90.9597243327886 209.75618181521432 180.05712144006367 C 0.0 **** -0.24
31517 H 89.93244044069729 209.80857885991674 180.4176095872727 H 0.0 **** 0.06
31518 H 91.64344521790804 209.98142339828678 180.87565508684372 H 0.0 **** 0.06
31519 H 91.10135231058905 210.47991637311048 179.25531089544364 H 0.0 **** 0.06
31520 H 91.16084518112166 208.7530044144574 179.68135308518265 H 0.0 **** 0.06
31521 C 53.49018802624016 14.176945174986415 201.54511532760029 C 0.0 **** -0.24
31522 H 53.93666037315609 14.11326683011113 202.53750530253473 H 0.0 **** 0.06
31523 H 53.869915200123046 15.061114282355575 201.03245694629788 H 0.0 **** 0.06
31524 H 52.406732236258165 14.247084411990528 201.63764308112792 H 0.0 **** 0.06
31525 H 53.7503319151802 13.285659685994801 200.97333767141095 H 0.0 **** 0.06
31526 C 226.81070169252115 107.61256134906253 9.95804909163158 C 0.0 **** -0.24
31527 H 225.8965509882881 107.02058876256922 10.00037279415119 H 0.0 **** 0.06
31528 H 227.66705717458598 106.94915924271425 9.8360684186555 H 0.0 **** 0.06
31529 H 226.91935436329857 108.17869171935851 10.88329411441515 H 0.0 **** 0.06
31530 H 226.7592627003656 108.30062331135471 9.114267653222669 H 0.0 **** 0.06
31531 C 287.64839799059393 239.40592905522612 152.96844651379064 C 0.0 **** -0.24
31532 H 287.4073095261533 240.1658144877369 152.22458642264303 H 0.0 **** 0.06
31533 H 287.96042719429687 238.49124656658563 152.46414097943835 H 0.0 **** 0.06
31534 H 286.76865399165536 239.2036806607436 153.57851325472717 H 0.0 **** 0.06
31535 H 288.4579843633916 239.7650962708475 153.60411951776797 H 0.0 **** 0.06
31536 C 210.75035955701588 64.13855643996729 33.2663072570748 C 0.0 **** -0.24
31537 H 211.3851129465228 64.14686355842971 34.15174187982137 H 0.0 **** 0.06
31538 H 210.64555334905697 63.11482877705157 32.904687721636236 H 0.0 **** 0.06
31539 H 211.20356413862618 64.7536201460525 32.48909647933306 H 0.0 **** 0.06
31540 H 209.76879843807836 64.5365948222724 33.5193952975913 H 0.0 **** 0.06
31541 C 23.68103139121183 248.24184231841994 2.1417542984328293 C 0.0 **** -0.24
31542 H 24.687564620512035 247.90401728195616 2.3875437427644215 H 0.0 **** 0.06
31543 H 23.043042950616098 247.37654273575504 1.9570552462415662 H 0.0 **** 0.06
31544 H 23.714690911961952 248.86561713501206 1.2485570276910494 H 0.0 **** 0.06
31545 H 23.278798656120443 248.81904688370247 2.974491392570144 H 0.0 **** 0.06
31546 C 195.90071603020152 289.83404901996823 140.56295480294858 C 0.0 **** -0.24
31547 H 196.184045301077 290.4866437030083 139.73756577296822 H 0.0 **** 0.06
31548 H 196.319020843827 290.2220705254965 141.49257771115012 H 0.0 **** 0.06
31549 H 196.285537545676 288.83059194629163 140.38156667870868 H 0.0 **** 0.06
31550 H 194.81345965067874 289.7980109304465 140.64042852235013 H 0.0 **** 0.06
31551 C 284.86622566315486 138.3047103982185 275.55139348045327 C 0.0 **** -0.24
31552 H 284.04880746356105 137.93874152759983 274.9289461901917 H 0.0 **** 0.06
31553 H 284.4593078212734 138.8740709889414 276.3868788101998 H 0.0 **** 0.06
31554 H 285.5156089591418 138.94635614961976 274.95604617560514 H 0.0 **** 0.06
31555 H 285.43999111020145 137.45953444418402 275.93156471587815 H 0.0 **** 0.06
31556 C 157.18368703526085 191.10881048328872 182.57333577608773 C 0.0 **** -0.24
31557 H 156.52964458033722 190.39140455066013 183.06965376684923 H 0.0 **** 0.06
31558 H 157.2387903218783 192.02165109323397 183.16582965390586 H 0.0 **** 0.06
31559 H 156.7845388472079 191.339342042211 181.58479226092493 H 0.0 **** 0.06
31560 H 158.18087526376837 190.67960551348506 182.47176272633044 H 0.0 **** 0.06
31561 C 177.3189069012701 285.1515162190789 249.3867895970288 C 0.0 **** -0.24
31562 H 177.08296281487333 284.14926015958815 249.0282585215531 H 0.0 **** 0.06
31563 H 178.3865930783536 285.33822407577344 249.26692401267252 H 0.0 **** 0.06
31564 H 177.05107364872185 285.2318043711138 250.4404895130596 H 0.0 **** 0.06
31565 H 176.75455844221148 285.88489279342326 248.81097715712545 H 0.0 **** 0.06
31566 C 80.79445984628248 81.85629612793068 131.6490481235508 C 0.0 **** -0.24
31567 H 80.13536821956555 82.51639898364886 132.21265862382415 H 0.0 **** 0.06
31568 H 80.53966986786926 80.81816799955337 131.8654699617625 H 0.0 **** 0.06
31569 H 81.82923113583453 82.04388200853288 131.93686450373502 H 0.0 **** 0.06
31570 H 80.67440772189039 82.04533066763497 130.5827241689876 H 0.0 **** 0.06
31571 C 83.90609554086731 107.82743761734903 164.01023670326117 C 0.0 **** -0.24
31572 H 84.70736120306421 108.24199668387882 163.3984226225689 H 0.0 **** 0.06
31573 H 84.30556973448273 107.53178442908148 164.98054949438682 H 0.0 **** 0.06
31574 H 83.48055957582167 106.95792467227093 163.51058810195087 H 0.0 **** 0.06
31575 H 83.13083008544652 108.58132298745389 164.1508876082957 H 0.0 **** 0.06
31576 C 250.52296345376726 107.37063905891074 30.841754536214495 C 0.0 **** -0.24
31577 H 249.91589975760596 108.27631042335119 30.833013728860948 H 0.0 **** 0.06
31578 H 251.19508671529692 107.37558035822957 29.983749726140417 H 0.0 **** 0.06
31579 H 249.87265317913324 106.49731448539941 30.788725418372707 H 0.0 **** 0.06
31580 H 251.10697081342389 107.33359024498623 31.76089932101243 H 0.0 **** 0.06
31581 C 289.8015461348843 147.9134581518687 180.60200203238298 C 0.0 **** -0.24
31582 H 290.41296345721196 147.0708126702344 180.92656913675614 H 0.0 **** 0.06
31583 H 288.8697027175686 147.92421262033253 181.16867878641898 H 0.0 **** 0.06
31584 H 289.5792469998066 147.81280473158643 179.5398968910353 H 0.0 **** 0.06
31585 H 290.34263125423547 148.84271147724405 180.77355520224017 H 0.0 **** 0.06
31586 C 152.84273759772566 202.68383767713004 246.85345384958293 C 0.0 **** -0.24
31587 H 152.4936875077259 201.75543484608522 247.3061320692325 H 0.0 **** 0.06
31588 H 152.7742629718997 202.60739859382113 245.76831853918725 H 0.0 **** 0.06
31589 H 153.8796604364141 202.86004257519033 247.14121975233655 H 0.0 **** 0.06
31590 H 152.22396467152538 203.51181891440223 247.20018932364238 H 0.0 **** 0.06
31591 C 96.70238212595774 50.76506843969679 301.2960683047761 C 0.0 **** -0.24
31592 H 96.28876873178547 50.44404515842214 302.2514511377364 H 0.0 **** 0.06
31593 H 97.38963253524079 51.59505048639659 301.45796649454115 H 0.0 **** 0.06
31594 H 95.8934596781873 51.08582191071764 300.63950678046695 H 0.0 **** 0.06
31595 H 97.23763810191667 49.934500056469204 300.8342235712747 H 0.0 **** 0.06
31596 C 305.86015319892215 16.367357097638035 37.24560589654618 C 0.0 **** -0.24
31597 H 306.1899042796978 15.545298784310404 37.880386725868476 H 0.0 **** 0.06
31598 H 305.3002836181646 15.969424145977044 36.39895734443678 H 0.0 **** 0.06
31599 H 306.72801947585407 16.91738233361029 36.88240524540217 H 0.0 **** 0.06
31600 H 305.22028136275287 17.037087384462666 37.82133216147628 H 0.0 **** 0.06
31601 C 244.71014562101536 165.64875820200507 4.489667605581701 C 0.0 **** -0.24
31602 H 244.8019554912913 165.75486524332382 3.4095275286776427 H 0.0 **** 0.06
31603 H 243.6708981080088 165.79862642680854 4.783399583532287 H 0.0 **** 0.06
31604 H 245.33809421164517 166.39213275634597 4.982041645389359 H 0.0 **** 0.06
31605 H 245.03039279113065 164.64982033003918 4.784822184480788 H 0.0 **** 0.06
31606 C 110.31226739996518 271.609850896492 208.82094039171722 C 0.0 **** -0.24
31607 H 110.9007614896789 271.5030403891538 207.9093365442179 H 0.0 **** 0.06
31608 H 110.45829331762863 270.7324116951752 209.45184152067003 H 0.0 **** 0.06
31609 H 109.25692827615669 271.7007011005066 208.56239846582343 H 0.0 **** 0.06
31610 H 110.6342222869971 272.5021224052401 209.35745782229736 H 0.0 **** 0.06
31611 C 87.59514494669418 73.29442080094191 105.24618896482565 C 0.0 **** -0.24
31612 H 88.07701345403007 73.07822686040683 104.2922527639256 H 0.0 **** 0.06
31613 H 87.54226416153227 72.38264261063989 105.84146579617243 H 0.0 **** 0.06
31614 H 86.58863697928979 73.67141581322548 105.06716992035385 H 0.0 **** 0.06
31615 H 88.17516399943565 74.04596797221407 105.78267111928687 H 0.0 **** 0.06
31616 C 114.64983489139229 191.67018214028258 153.8603389523355 C 0.0 **** -0.24
31617 H 113.83115478948812 191.35763119574932 153.21265141601475 H 0.0 **** 0.06
31618 H 115.58181273688521 191.22871541409762 153.5056492563657 H 0.0 **** 0.06
31619 H 114.45358800094564 191.33572540444754 154.87966530126909 H 0.0 **** 0.06
31620 H 114.73213839669648 192.75636679003009 153.84280657951246 H 0.0 **** 0.06
31621 C 311.8953599556672 151.6049353164899 285.69945352536286 C 0.0 **** -0.24
31622 H 312.784185714915 152.2029371761197 285.8998728210669 H 0.0 **** 0.06
31623 H 311.08186162255845 152.25845988231686 285.3828252599684 H 0.0 **** 0.06
31624 H 311.60413732834775 151.07408151251042 286.60605264958593 H 0.0 **** 0.06
31625 H 312.1123771940909 150.88483762138145 284.9111634944247 H 0.0 **** 0.06
31626 C 153.37310235440907 282.70085296357564 177.93759102165734 C 0.0 **** -0.24
31627 H 154.10637626304822 282.91892679861127 178.71402487414946 H 0.0 **** 0.06
31628 H 153.79865804300357 282.9333377872301 176.96125219016187 H 0.0 **** 0.06
31629 H 152.4812732179774 283.3063880389918 178.0988808649239 H 0.0 **** 0.06
31630 H 153.1071683280419 281.643906540789 177.97657446245313 H 0.0 **** 0.06
31631 C 95.66550300612036 95.42824996736013 303.0957341844944 C 0.0 **** -0.24
31632 H 94.70196183910923 95.33487462579069 303.59735537417686 H 0.0 **** 0.06
31633 H 95.887671571384 96.48231900835873 302.93006302134313 H 0.0 **** 0.06
31634 H 95.62721669707153 94.90941205708646 302.1385838695188 H 0.0 **** 0.06
31635 H 96.44326785746276 94.9860540317577 303.718073271294 H 0.0 **** 0.06
31636 C 290.55086206118887 205.04677581864001 223.5683614784753 C 0.0 **** -0.24
31637 H 290.44942629276125 204.50484345755046 222.62765671371423 H 0.0 **** 0.06
31638 H 291.04004898757046 206.00334570543566 223.38505694525378 H 0.0 **** 0.06
31639 H 291.1499960643188 204.45733162766584 224.26343294846336 H 0.0 **** 0.06
31640 H 289.56327485580533 205.2187014670406 223.99581373414165 H 0.0 **** 0.06
31641 C 218.13467944000902 140.40061976773617 163.7695115607924 C 0.0 **** -0.24
31642 H 218.9699551025607 139.70283560576345 163.8140892896921 H 0.0 **** 0.06
31643 H 217.96400867656138 140.6976064897754 162.7338819284987 H 0.0 **** 0.06
31644 H 218.36633572488455 141.28263746990396 164.36625228083477 H 0.0 **** 0.06
31645 H 217.2394247012311 139.92046879004175 164.1624649088667 H 0.0 **** 0.06
31646 C 42.109240205522156 174.63684073778302 235.0742321336376 C 0.0 **** -0.24
31647 H 42.19957998744016 175.43485093203986 234.33706335720746 H 0.0 **** 0.06
31648 H 42.723361628519655 174.8742156601944 235.94352286677687 H 0.0 **** 0.06
31649 H 42.44633762207269 173.69737539956844 234.63569643158448 H 0.0 **** 0.06
31650 H 41.06678901295524 174.54160310520012 235.3797868080609 H 0.0 **** 0.06
31651 C 125.4080790321159 280.33420992011054 211.39677673991903 C 0.0 **** -0.24
31652 H 126.10352821826302 279.7921868506072 212.0376088330318 H 0.0 **** 0.06
31653 H 125.96891842016328 280.914381116507 210.66241448319778 H 0.0 **** 0.06
31654 H 124.80173719456991 281.00509345435114 212.004518629941 H 0.0 **** 0.06
31655 H 124.76087338725529 279.6246123256267 210.88148511731583 H 0.0 **** 0.06
31656 C 205.44632009656618 232.72439159232601 217.66242799930947 C 0.0 **** -0.24
31657 H 205.5684665044173 231.79431644133172 217.10844712159508 H 0.0 **** 0.06
31658 H 204.9379548352424 232.52107405408233 218.6057482506161 H 0.0 **** 0.06
31659 H 204.85211450686052 233.42283474125657 217.0720160744121 H 0.0 **** 0.06
31660 H 206.42515542438218 233.1597528663753 217.86294810043583 H 0.0 **** 0.06
31661 C 191.13995971098376 285.4069084522013 79.78219481538892 C 0.0 **** -0.24
31662 H 190.72796561260054 285.7505027016908 78.83223996696282 H 0.0 **** 0.06
31663 H 191.01137266634038 284.3269862772973 79.86354482346567 H 0.0 **** 0.06
31664 H 190.61838594676914 285.8983769872171 80.60277682363565 H 0.0 **** 0.06
31665 H 192.2011580139212 285.651668621826 79.82660169305518 H 0.0 **** 0.06
31666 C 150.57910772448042 49.83604968611991 190.46693265953343 C 0.0 **** -0.24
31667 H 151.42588997534716 49.602845522137955 191.1133984305091 H 0.0 **** 0.06
31668 H 150.06827691371876 50.72236266121175 190.84469521439962 H 0.0 **** 0.06
31669 H 149.88728683732444 48.99422119168736 190.45654069959056 H 0.0 **** 0.06
31670 H 150.9374421240433 50.02538497402321 189.45545109599357 H 0.0 **** 0.06
31671 C 96.37398864699841 147.38223033748685 17.190682146336272 C 0.0 **** -0.24
31672 H 95.83833275343568 148.09286480416483 17.821349075434128 H 0.0 **** 0.06
31673 H 96.51360385479597 146.44786354070533 17.734038963970676 H 0.0 **** 0.06
31674 H 97.34642021353983 147.7967152296751 16.921924859072234 H 0.0 **** 0.06
31675 H 95.79609871678068 147.19407513640542 16.285496971038924 H 0.0 **** 0.06
31676 C 156.0342555792069 79.98424905408223 189.58113998074134 C 0.0 **** -0.24
31677 H 156.35389103560703 79.02079468119376 189.18500339714797 H 0.0 **** 0.06
31678 H 156.33581900374145 80.06475574504489 190.6259024070626 H 0.0 **** 0.06
31679 H 154.95020579131267 80.06565963829397 189.50812135519232 H 0.0 **** 0.06
31680 H 156.49848192759464 80.78574798933923 189.00585943390217 H 0.0 **** 0.06
31681 C 56.42310087479484 177.22062402432425 43.92386523187511 C 0.0 **** -0.24
31682 H 56.05465668904162 176.19426293426864 43.92425194303314 H 0.0 **** 0.06
31683 H 55.61769827776365 177.89452150501546 43.63028696940759 H 0.0 **** 0.06
31684 H 57.24762624336162 177.30882911942274 43.21552976516563 H 0.0 **** 0.06
31685 H 56.771653683167244 177.4817209327386 44.92249163288207 H 0.0 **** 0.06
31686 C 129.15344746471078 102.49934256367862 307.07332637568516 C 0.0 **** -0.24
31687 H 128.7238800160065 101.74366906545256 306.41655798752356 H 0.0 **** 0.06
31688 H 128.49333059895713 103.3669323686988 307.11015043655175 H 0.0 **** 0.06
31689 H 130.12868678235156 102.8007669589366 306.69111444899306 H 0.0 **** 0.06
31690 H 129.2678161179817 102.0873851828857 308.075766536282 H 0.0 **** 0.06
31691 C 232.54092123221366 238.82780476288625 226.84157055769094 C 0.0 **** -0.24
31692 H 233.4014833670213 239.44389962950925 227.10166914668437 H 0.0 **** 0.06
31693 H 231.9941336143328 239.2951391567765 226.02172226587967 H 0.0 **** 0.06
31694 H 231.88630422120087 238.73524912668813 227.70776474481022 H 0.0 **** 0.06
31695 H 232.8805074392103 237.83871652961676 226.53464218902513 H 0.0 **** 0.06
31696 C 308.8615909472826 288.4741934246593 180.06265617219674 C 0.0 **** -0.24
31697 H 308.0859940643854 288.56585315326055 179.30233431991365 H 0.0 **** 0.06
31698 H 309.4194725130966 289.4082674794737 180.12848297824837 H 0.0 **** 0.06
31699 H 309.540151178634 287.66404447702644 179.7934814145707 H 0.0 **** 0.06
31700 H 308.4012767314894 288.25653432029094 181.02697079500462 H 0.0 **** 0.06
31701 C 314.38616896933695 150.09582162320015 7.695780978694998 C 0.0 **** -0.24
31702 H 314.07216221245324 151.06900971743187 8.071717189985307 H 0.0 **** 0.06
31703 H 315.29937321159946 150.21036060766824 7.109339851364879 H 0.0 **** 0.06
31704 H 313.5999048706423 149.67957764119882 7.066362149612772 H 0.0 **** 0.06
31705 H 314.5747737504208 149.4248893726235 8.533879720944384 H 0.0 **** 0.06
31706 C 253.09646489282682 113.8732634560651 228.0929543579422 C 0.0 **** -0.24
31707 H 253.81710006330457 113.49175223228863 227.36969680593455 H 0.0 **** 0.06
31708 H 252.55358921200008 113.03957724073874 228.5398174751 H 0.0 **** 0.06
31709 H 252.3933726229772 114.53718017739246 227.5897146552304 H 0.0 **** 0.06
31710 H 253.62179767302536 114.4245441738407 228.87258849550386 H 0.0 **** 0.06
31711 C 7.572965851469348 309.0026473885001 13.659918981786802 C 0.0 **** -0.24
31712 H 6.868681989987024 309.7978743865892 13.902798809498961 H 0.0 **** 0.06
31713 H 7.13951964048799 308.0397132474235 13.928501498450316 H 0.0 **** 0.06
31714 H 8.497981802007772 309.1542423736119 14.215863043639786 H 0.0 **** 0.06
31715 H 7.784827701993066 309.0195929477567 12.589947597659602 H 0.0 **** 0.06
31716 C 32.32833655986482 91.39724694109387 36.915151709455614 C 0.0 **** -0.24
31717 H 32.658112901404536 91.5337602712359 35.885541092561425 H 0.0 **** 0.06
31718 H 33.07220275502945 90.81543349464607 37.46068315055294 H 0.0 **** 0.06
31719 H 31.37497790064856 90.86797804525864 36.924428414236814 H 0.0 **** 0.06
31720 H 32.20785445891613 92.3705784976799 37.390609482092884 H 0.0 **** 0.06
31721 C 62.08641800082472 76.91938656028756 228.21831737872242 C 0.0 **** -0.24
31722 H 61.98872079710836 78.0036618016486 228.1537278052338 H 0.0 **** 0.06
31723 H 62.72747361995144 76.56399058127428 227.41077806266793 H 0.0 **** 0.06
31724 H 61.1018167722967 76.46026126971921 228.13056923042052 H 0.0 **** 0.06
31725 H 62.528811647188604 76.65154650073387 229.17808241055778 H 0.0 **** 0.06
31726 C 314.1642833278943 128.24480940354124 18.648273285659172 C 0.0 **** -0.24
31727 H 314.28014969657954 129.3158237766984 18.815241990118224 H 0.0 **** 0.06
31728 H 313.5622222347631 128.08081712895293 17.754859987401105 H 0.0 **** 0.06
31729 H 313.66945159123566 127.79491698333999 19.5088107404854 H 0.0 **** 0.06
31730 H 315.1461198661092 127.78995559115987 18.514585685173202 H 0.0 **** 0.06
31731 C 92.22996661265944 183.34025161489603 137.2140177585567 C 0.0 **** -0.24
31732 H 93.29375056799603 183.38301155944782 136.97722536023264 H 0.0 **** 0.06
31733 H 92.04692534275756 183.86301133123328 138.153121333839 H 0.0 **** 0.06
31734 H 91.9207282076004 182.30006861378774 137.31077662321601 H 0.0 **** 0.06
31735 H 91.66181866004572 183.81714027006865 136.41583265414724 H 0.0 **** 0.06
31736 C 253.80842988337895 52.8438515461545 295.0439887673321 C 0.0 **** -0.24
31737 H 253.40816874890578 53.81726727654052 295.3291469590977 H 0.0 **** 0.06
31738 H 254.42661310297143 52.952979230756256 294.1527127119516 H 0.0 **** 0.06
31739 H 252.98517377680793 52.16028342339675 294.8340307739887 H 0.0 **** 0.06
31740 H 254.4120048628909 52.4459160195571 295.85871381494 H 0.0 **** 0.06
31741 C 250.0009023797116 4.391279265839771 81.38705499090474 C 0.0 **** -0.24
31742 H 250.57038406170412 5.103760561090212 80.78995502492106 H 0.0 **** 0.06
31743 H 248.93744244340922 4.612563770893246 81.29850850550363 H 0.0 **** 0.06
31744 H 250.303616800773 4.469063170119654 82.43147252964224 H 0.0 **** 0.06
31745 H 250.19368795497547 3.3810327985754896 81.02729098047232 H 0.0 **** 0.06
31746 C 4.7242301478265745 210.39647683441285 283.5620134429255 C 0.0 **** -0.24
31747 H 5.485747669342743 210.67519889140306 284.28940083829343 H 0.0 **** 0.06
31748 H 4.18495920319765 211.28811952815033 283.2414662434028 H 0.0 **** 0.06
31749 H 4.0263814873848105 209.69418791235853 284.0172022651242 H 0.0 **** 0.06
31750 H 5.199225587724129 209.92914007144367 282.6996915599618 H 0.0 **** 0.06
31751 C 154.23159489433954 95.49413160226811 184.17882795347907 C 0.0 **** -0.24
31752 H 154.26468686068046 94.89809404779754 185.0914963000572 H 0.0 **** 0.06
31753 H 154.7018428814444 96.46103478139412 184.3602623123885 H 0.0 **** 0.06
31754 H 153.1928561202169 95.6453432601223 183.88190514839715 H 0.0 **** 0.06
31755 H 154.76461242075732 94.97246137637453 183.384989283253 H 0.0 **** 0.06
31756 C 108.12898309770341 65.92873466631909 206.93504883807913 C 0.0 **** -0.24
31757 H 107.58051142929548 66.65201560747474 207.53812334180387 H 0.0 **** 0.06
31758 H 107.49448885657131 65.57941137766792 206.11991900046564 H 0.0 **** 0.06
31759 H 108.42077875657236 65.08285514123526 207.55765583556928 H 0.0 **** 0.06
31760 H 109.02117933831295 66.40259422504258 206.52405815333128 H 0.0 **** 0.06
31761 C 15.402151905039048 130.25730337542302 158.71374241763914 C 0.0 **** -0.24
31762 H 15.796852820842773 131.27438233447484 158.71110846464325 H 0.0 **** 0.06
31763 H 14.561140355103618 130.1958983758629 159.40472747592673 H 0.0 **** 0.06
31764 H 16.183547525319923 129.56650442059603 159.02895827104476 H 0.0 **** 0.06
31765 H 15.068832422696488 129.99540853595585 157.7101346454666 H 0.0 **** 0.06
31766 C 286.86469722328593 256.50298559939483 105.34884627104063 C 0.0 **** -0.24
31767 H 286.3978436582629 255.51913646913843 105.31825244799359 H 0.0 **** 0.06
31768 H 286.42604298078413 257.1369593820492 104.57792341439117 H 0.0 **** 0.06
31769 H 287.9355726032238 256.4027072718086 105.17186738014954 H 0.0 **** 0.06
31770 H 286.6983360700152 256.95319191566205 106.32744199400628 H 0.0 **** 0.06
31771 C 185.52352786598755 94.68071691615319 275.4576160702147 C 0.0 **** -0.24
31772 H 184.85088043856422 94.48789520557312 276.2941927747214 H 0.0 **** 0.06
31773 H 186.5532946503942 94.68867890436115 275.8140656793917 H 0.0 **** 0.06
31774 H 185.28452591731912 95.64710251928886 275.0153126924186 H 0.0 **** 0.06
31775 H 185.4034326006381 93.89758480444596 274.70847684649584 H 0.0 **** 0.06
31776 C 86.34756903625566 17.991705408497978 235.76271050467378 C 0.0 **** -0.24
31777 H 87.0217617051166 18.449254032441786 236.48676357737543 H 0.0 **** 0.06
31778 H 86.32385783625827 16.913221821861498 235.9191946336596 H 0.0 **** 0.06
31779 H 86.70013373125968 18.20584923360343 234.7533528317851 H 0.0 **** 0.06
31780 H 85.34565764944887 18.40051095863879 235.8907219949708 H 0.0 **** 0.06
31781 C 16.0412888222383 268.9823584346025 209.50734394307557 C 0.0 **** -0.24
31782 H 16.63776831917052 268.9016491424343 208.59886578278184 H 0.0 **** 0.06
31783 H 15.072411629410624 269.42368247835975 209.2667541712853 H 0.0 **** 0.06
31784 H 16.559339784296427 269.6146051684457 210.22855377307616 H 0.0 **** 0.06
31785 H 15.892541722735771 267.9904393165711 209.9339610000419 H 0.0 **** 0.06
31786 C 266.1154254997113 247.9270531982528 7.8320893286733195 C 0.0 **** -0.24
31787 H 265.90865741353633 246.88385473309552 7.596336780462508 H 0.0 **** 0.06
31788 H 265.17905300773924 248.48494829346646 7.863072759714981 H 0.0 **** 0.06
31789 H 266.76502708126174 248.35061270829294 7.065405246709119 H 0.0 **** 0.06
31790 H 266.6080550967977 247.99083946932768 8.801542130429894 H 0.0 **** 0.06
31791 C 168.41351615300812 99.22143411428405 220.1329430480215 C 0.0 **** -0.24
31792 H 169.2609428542869 98.82131263376829 220.68956602323226 H 0.0 **** 0.06
31793 H 168.77767747329477 99.83943716428334 219.31120457346705 H 0.0 **** 0.06
31794 H 167.79573719233548 99.82677221198759 220.79622752156223 H 0.0 **** 0.06
31795 H 167.81939210838812 98.39874192062359 219.73350027402222 H 0.0 **** 0.06
31796 C 73.60105718731862 32.99111534990277 57.44359018140341 C 0.0 **** -0.24
31797 H 74.22661183721848 32.414592983907596 56.76199595300966 H 0.0 **** 0.06
31798 H 73.65694592588409 34.04750621582875 57.183509172794885 H 0.0 **** 0.06
31799 H 73.95177900151523 32.84892382742845 58.466269082329575 H 0.0 **** 0.06
31800 H 72.56790451218788 32.650951696723865 57.36394349297703 H 0.0 **** 0.06
31801 C 178.9927222993623 2.2717304080136955 140.56658612758952 C 0.0 **** -0.24
31802 H 178.73037892375413 1.3781389849107768 141.13200779939706 H 0.0 **** 0.06
31803 H 178.24072449780067 2.4490219300873832 139.7983059908764 H 0.0 **** 0.06
31804 H 179.96725928630264 2.1320456414991327 140.09777040561255 H 0.0 **** 0.06
31805 H 179.03403113810492 3.1281341670351708 141.24082164922405 H 0.0 **** 0.06
31806 C 263.6796519711519 77.78213285799171 48.114697152398094 C 0.0 **** -0.24
31807 H 264.5467067221307 78.13153670274338 48.67627294168756 H 0.0 **** 0.06
31808 H 262.76769192878004 78.12689185352642 48.6036915010402 H 0.0 **** 0.06
31809 H 263.68426383885605 76.69300244607871 48.078961683097305 H 0.0 **** 0.06
31810 H 263.72110877958596 78.17912389884063 47.10060554181257 H 0.0 **** 0.06
31811 C 296.45968948291795 286.30577898753023 290.0445502645724 C 0.0 **** -0.24
31812 H 297.12906446805164 285.71878294029545 290.67372044938713 H 0.0 **** 0.06
31813 H 297.0480760381588 286.9150442985199 289.35827379432163 H 0.0 **** 0.06
31814 H 295.84591962713887 286.9524711513553 290.6701173281406 H 0.0 **** 0.06
31815 H 295.816343287161 285.6348071388172 289.4748478834259 H 0.0 **** 0.06
31816 C 33.14946686385747 155.24516106817748 145.57863426488478 C 0.0 **** -0.24
31817 H 32.86895229797176 154.6692045676876 144.69726315469396 H 0.0 **** 0.06
31818 H 32.57154267681028 154.90184663517266 146.43685404175326 H 0.0 **** 0.06
31819 H 32.94604700327682 156.30080817430536 145.4019427467557 H 0.0 **** 0.06
31820 H 34.212298265738355 155.10865916352287 145.77867174098617 H 0.0 **** 0.06
31821 C 184.73136076977016 82.23233233270724 144.81998639634847 C 0.0 **** -0.24
31822 H 185.43675947538208 81.84023398485488 144.08728188425462 H 0.0 **** 0.06
31823 H 185.26460786342864 82.4898754306991 145.73493417540894 H 0.0 **** 0.06
31824 H 183.97813096174394 81.47497894684744 145.03879009461357 H 0.0 **** 0.06
31825 H 184.24670153264765 83.12225642428791 144.41771921196633 H 0.0 **** 0.06
31826 C 215.41539368735712 177.99979932920922 269.77942079123284 C 0.0 **** -0.24
31827 H 215.66959890728393 178.39685734490325 270.76247521029535 H 0.0 **** 0.06
31828 H 214.49961619107827 177.41234310812263 269.85115724741644 H 0.0 **** 0.06
31829 H 216.22705190208467 177.36653547633938 269.42265310698957 H 0.0 **** 0.06
31830 H 215.2645169697065 178.82551386714607 269.08317581038284 H 0.0 **** 0.06
31831 C 148.55556418472514 36.28890102495333 220.2765804711122 C 0.0 **** -0.24
31832 H 148.56612663653766 35.408984874744704 220.9198240900181 H 0.0 **** 0.06
31833 H 147.98678453292297 36.07058307957749 219.3722208432079 H 0.0 **** 0.06
31834 H 149.57868697887682 36.55381121160664 220.00703140722158 H 0.0 **** 0.06
31835 H 148.09203561516196 37.12054202015622 220.8061178775368 H 0.0 **** 0.06
31836 C 42.51521270030412 33.04855121534226 51.6063020283178 C 0.0 **** -0.24
31837 H 42.709175197716604 33.16366107462056 52.6721132752491 H 0.0 **** 0.06
31838 H 43.3824626365805 33.39035674641559 51.04031538336508 H 0.0 **** 0.06
31839 H 41.64370652260402 33.64259663690126 51.32999536489788 H 0.0 **** 0.06
31840 H 42.32505327036995 31.99848093112402 51.382744110923 H 0.0 **** 0.06
31841 C 126.62770963365605 273.5861836818318 259.7890407388761 C 0.0 **** -0.24
31842 H 126.94260361343402 274.6284058668636 259.84264157068446 H 0.0 **** 0.06
31843 H 126.7972320855641 273.1068049599347 260.7538347764497 H 0.0 **** 0.06
31844 H 127.20428798039913 273.07089040196456 259.0211282479392 H 0.0 **** 0.06
31845 H 125.56739120202045 273.5392516621596 259.5408300240951 H 0.0 **** 0.06
31846 C 244.27425153732293 78.52593332009252 3.0933413578710685 C 0.0 **** -0.24
31847 H 244.1111864211503 77.49315834301163 2.7856467632004467 H 0.0 **** 0.06
31848 H 243.8374249455504 78.68453934182185 4.079161832014421 H 0.0 **** 0.06
31849 H 243.80265147193776 79.19764334953462 2.374791169797618 H 0.0 **** 0.06
31850 H 245.34412120486104 78.72879458258086 3.131974877513244 H 0.0 **** 0.06
31851 C 28.352074553521874 89.00903319150927 133.82136478713775 C 0.0 **** -0.24
31852 H 28.697660584757216 88.44368090424067 132.95636858339225 H 0.0 **** 0.06
31853 H 27.886486086894337 89.93672092225412 133.48639283222423 H 0.0 **** 0.06
31854 H 29.199193093225745 89.24092605851632 134.46708549218707 H 0.0 **** 0.06
31855 H 27.624303426650584 88.41714240522586 134.37528520393244 H 0.0 **** 0.06
31856 C 237.94327007501087 68.23035302893757 14.728262996982565 C 0.0 **** -0.24
31857 H 238.30572890025417 67.22799864288183 14.959327145886306 H 0.0 **** 0.06
31858 H 237.8181543320248 68.33132834118828 13.650711892858695 H 0.0 **** 0.06
31859 H 238.66318240662355 68.96739851256493 15.082556004229133 H 0.0 **** 0.06
31860 H 236.9843068824081 68.39233740060249 15.22234499109274 H 0.0 **** 0.06
31861 C 181.44943166284924 80.90587143659985 103.5749919754769 C 0.0 **** -0.24
31862 H 180.76468824713692 81.60418956995517 103.09422114938025 H 0.0 **** 0.06
31863 H 182.4759897021575 81.17539352890662 103.32732529972029 H 0.0 **** 0.06
31864 H 181.24423123778195 79.89446251043535 103.22374402737603 H 0.0 **** 0.06
31865 H 181.3135267677751 80.94927737185779 104.65624917909912 H 0.0 **** 0.06
31866 C 273.9117977496704 229.88460568232944 269.4658119862202 C 0.0 **** -0.24
31867 H 273.20785157091575 229.73930226929951 270.2852429141211 H 0.0 **** 0.06
31868 H 274.73835004647225 230.50902327485863 269.8042987935522 H 0.0 **** 0.06
31869 H 273.4038774948657 230.37295625951535 268.6344004895983 H 0.0 **** 0.06
31870 H 274.2953967919211 228.91809242870414 269.14037957966036 H 0.0 **** 0.06
31871 C 200.22255508164466 108.90012427105054 267.64180757227416 C 0.0 **** -0.24
31872 H 200.34135515192685 107.89024820086638 268.0355882476153 H 0.0 **** 0.06
31873 H 199.21754351143005 109.26026239816306 267.8639148154585 H 0.0 **** 0.06
31874 H 200.37503023388257 108.8894284649372 266.5629524967563 H 0.0 **** 0.06
31875 H 200.956371134893 109.55957798270151 268.10678301111227 H 0.0 **** 0.06
31876 C 66.82841471936013 208.71385574665115 140.82921958416787 C 0.0 **** -0.24
31877 H 65.87787316820993 208.34143363084854 140.4475955858827 H 0.0 **** 0.06
31878 H 66.9869545211539 209.73320788585121 140.4750590210962 H 0.0 **** 0.06
31879 H 67.63709485010213 208.07525642756215 140.47595099109893 H 0.0 **** 0.06
31880 H 66.80907064162375 208.70664187647884 141.91907696804125 H 0.0 **** 0.06
31881 C 183.6232361866356 62.59005537516802 5.878046938920306 C 0.0 **** -0.24
31882 H 184.71317309963194 62.574767736253136 5.842365432774045 H 0.0 **** 0.06
31883 H 183.22913027571644 62.68059684035268 4.86573072108223 H 0.0 **** 0.06
31884 H 183.29114842151768 63.438203858967825 6.476308765518809 H 0.0 **** 0.06
31885 H 183.26286373021492 61.66432394355749 6.3273212001332695 H 0.0 **** 0.06
31886 C 252.84936766723968 172.59188933480442 191.18962657452465 C 0.0 **** -0.24
31887 H 251.87304433673134 173.0750209109936 191.22825278833767 H 0.0 **** 0.06
31888 H 253.4598434343995 173.0678587805462 190.42198943619894 H 0.0 **** 0.06
31889 H 252.72183744528007 171.536825520523 190.9504660979553 H 0.0 **** 0.06
31890 H 253.34092062039673 172.68895237856873 192.15712014305996 H 0.0 **** 0.06
31891 C 18.533833223821944 249.68933740697233 35.91083740219568 C 0.0 **** -0.24
31892 H 18.14729761226579 249.97238922379023 34.93107659156567 H 0.0 **** 0.06
31893 H 19.623139317971663 249.72277590009963 35.89513868596703 H 0.0 **** 0.06
31894 H 18.204156545002945 248.6786516996708 36.15258735721153 H 0.0 **** 0.06
31895 H 18.15930070445245 250.3834535868036 36.66283704873746 H 0.0 **** 0.06
31896 C 189.42177411819193 111.75353402820718 285.10300464361524 C 0.0 **** -0.24
31897 H 189.05459680598364 112.68399020204515 285.53510819163415 H 0.0 **** 0.06
31898 H 190.04771448709232 111.23692951932321 285.8312448443965 H 0.0 **** 0.06
31899 H 190.00758199255205 111.97314816622213 284.2110847428679 H 0.0 **** 0.06
31900 H 188.57646943012514 111.11888376769417 284.83482301442086 H 0.0 **** 0.06
31901 C 85.82090597027789 12.71282211685346 156.21062196206844 C 0.0 **** -0.24
31902 H 85.77525055847354 12.560952151610579 155.13284163151695 H 0.0 **** 0.06
31903 H 85.85306222359023 13.780832834377577 156.42589488700753 H 0.0 **** 0.06
31904 H 86.71702336061904 12.235836851741098 156.60747083659203 H 0.0 **** 0.06
31905 H 84.93888848159861 12.273448561102185 156.67754206469414 H 0.0 **** 0.06
31906 C 51.94742957213933 168.73120770176922 29.88840057789156 C 0.0 **** -0.24
31907 H 52.79732962782805 168.31592308146293 30.428944678184735 H 0.0 **** 0.06
31908 H 52.283359754758635 169.11755031159237 28.925665591469624 H 0.0 **** 0.06
31909 H 51.50726509700789 169.5413148259725 30.470978502293747 H 0.0 **** 0.06
31910 H 51.20289474408284 167.95217147236337 29.72844812487699 H 0.0 **** 0.06
31911 C 165.47221384321324 297.92428342810206 309.59453604904604 C 0.0 **** -0.24
31912 H 166.20288620601383 298.0088013111596 310.39909740575746 H 0.0 **** 0.06
31913 H 164.46619942792097 297.9718845116609 310.011923740521 H 0.0 **** 0.06
31914 H 165.60828734071208 296.9746364677652 309.0785321758036 H 0.0 **** 0.06
31915 H 165.6125524856779 298.74446094218416 308.88950465481 H 0.0 **** 0.06
31916 C 278.1186817633114 221.4644601793894 203.4471442377959 C 0.0 **** -0.24
31917 H 278.53254657821805 222.46689439581513 203.32998232124055 H 0.0 **** 0.06
31918 H 277.06658270915193 221.47122915578316 203.16106537755832 H 0.0 **** 0.06
31919 H 278.2110833951216 221.1537418395357 204.48704586504255 H 0.0 **** 0.06
31920 H 278.6645543306781 220.76918538935882 202.8096503515158 H 0.0 **** 0.06
31921 C 176.99114078339892 53.530430645468925 102.3219836482447 C 0.0 **** -0.24
31922 H 176.31915247396523 53.652207009051324 103.17237743102697 H 0.0 **** 0.06
31923 H 176.44944229953018 53.06963690161541 101.49566758871916 H 0.0 **** 0.06
31924 H 177.8283016385539 52.8936190694659 102.60898377378521 H 0.0 **** 0.06
31925 H 177.3656002282309 54.50616633048418 102.01307857333728 H 0.0 **** 0.06
31926 C 119.0693543979541 61.65244886439069 235.60166094090587 C 0.0 **** -0.24
31927 H 119.0785656517181 62.721094520415704 235.81822032902932 H 0.0 **** 0.06
31928 H 118.04654047819992 61.331258971059015 235.40417147569406 H 0.0 **** 0.06
31929 H 119.46225398648934 61.10575156206613 236.45916623242113 H 0.0 **** 0.06
31930 H 119.68939296398614 61.452853369735664 234.7277701213539 H 0.0 **** 0.06
31931 C 93.97953965006047 254.07078348466155 212.02444983273688 C 0.0 **** -0.24
31932 H 92.90486315692121 254.0676084553631 212.21002652839073 H 0.0 **** 0.06
31933 H 94.39540952332683 255.03430528304074 212.32123822261423 H 0.0 **** 0.06
31934 H 94.16474384765408 253.90518188552 210.96378878447473 H 0.0 **** 0.06
31935 H 94.4502712957925 253.27701290547338 212.60493871086186 H 0.0 **** 0.06
31936 C 144.53764861443756 215.0624746388439 175.99601806066892 C 0.0 **** -0.24
31937 H 143.4848446929235 214.8166275567988 176.13494057572245 H 0.0 **** 0.06
31938 H 144.76825943661814 215.98478909176328 176.53120499841378 H 0.0 **** 0.06
31939 H 144.74181863140177 215.19844411668834 174.93392896098044 H 0.0 **** 0.06
31940 H 145.15459424043118 214.25312646420846 176.38454472647817 H 0.0 **** 0.06
31941 C 153.67848746133814 76.77381292953223 170.99784819836367 C 0.0 **** -0.24
31942 H 153.33426717419462 76.32316135534782 170.0666189540222 H 0.0 **** 0.06
31943 H 154.67291830950643 77.19554917641221 170.85005043636028 H 0.0 **** 0.06
31944 H 153.7178361627786 76.01195618787875 171.77664042777053 H 0.0 **** 0.06
31945 H 152.98851435892584 77.56236472125681 171.29509982787874 H 0.0 **** 0.06
31946 C 204.28870659859615 32.813715043124915 65.75251456210012 C 0.0 **** -0.24
31947 H 204.83290078839957 33.71288819852472 66.04081417858455 H 0.0 **** 0.06
31948 H 203.6122320872019 33.04673069965244 64.93014889548681 H 0.0 **** 0.06
31949 H 203.71431061226554 32.448811777510684 66.60359928440803 H 0.0 **** 0.06
31950 H 204.99608496867813 32.04709170520209 65.43575779309631 H 0.0 **** 0.06
31951 C 127.81038329893394 10.815322846949059 166.80620720274726 C 0.0 **** -0.24
31952 H 128.34759421951756 10.143760934295486 167.47598207134962 H 0.0 **** 0.06
31953 H 127.84978810090368 11.83087545339707 167.20031571013453 H 0.0 **** 0.06
31954 H 126.77086199789917 10.495045471441443 166.72866223324326 H 0.0 **** 0.06
31955 H 128.2731712122835 10.789657210294322 165.81945091360024 H 0.0 **** 0.06
31956 C 218.59628662965844 241.62555208282132 59.09591429804277 C 0.0 **** -0.24
31957 H 218.0629870683851 240.80413498953308 59.575473357266986 H 0.0 **** 0.06
31958 H 217.91428674701726 242.46215886542245 58.94291559589249 H 0.0 **** 0.06
31959 H 218.9866228205507 241.29264678850504 58.13404160671598 H 0.0 **** 0.06
31960 H 219.4225304185426 241.9422068502076 59.733025209086975 H 0.0 **** 0.06
31961 C 178.17062375149015 262.66604867371075 222.55828956207316 C 0.0 **** -0.24
31962 H 177.17692990944278 262.7808578661484 222.12542151403306 H 0.0 **** 0.06
31963 H 178.32103471527603 261.6269069357264 222.85110237025424 H 0.0 **** 0.06
31964 H 178.26150766734867 263.30858677108586 223.43432852197077 H 0.0 **** 0.06
31965 H 178.92251824603017 262.9486363241236 221.8219647454456 H 0.0 **** 0.06
31966 C 299.7205994291319 233.99073148768997 131.13523274857855 C 0.0 **** -0.24
31967 H 300.1193935476855 234.8875345730197 131.61055667196965 H 0.0 **** 0.06
31968 H 300.5042852432597 233.23654570530928 131.06596010764645 H 0.0 **** 0.06
31969 H 299.3643284162452 234.238732038043 130.13507973767935 H 0.0 **** 0.06
31970 H 298.8936945358978 233.6030316735855 131.72936109917907 H 0.0 **** 0.06
31971 C 163.7881418212255 192.04086867766472 145.65777786740162 C 0.0 **** -0.24
31972 H 164.39559578572886 191.1378409067903 145.58936821421403 H 0.0 **** 0.06
31973 H 162.73445658494825 191.76682793655948 145.70896814398657 H 0.0 **** 0.06
31974 H 163.96106535182247 192.6617732334148 144.77955105793032 H 0.0 **** 0.06
31975 H 164.06273945919708 192.59545035423827 146.5554223705309 H 0.0 **** 0.06
31976 C 291.2689436327956 71.70454761652002 64.92921008979928 C 0.0 **** -0.24
31977 H 291.6026062938471 71.72542839658158 65.96696611811024 H 0.0 **** 0.06
31978 H 291.06178401154153 70.6758159190554 64.63469806089495 H 0.0 **** 0.06
31979 H 292.0494816945808 72.11580969434891 64.28922088148798 H 0.0 **** 0.06
31980 H 290.362719965108 72.30222075694178 64.8277318447951 H 0.0 **** 0.06
31981 C 313.66100639057237 294.52051115436075 95.81334697281753 C 0.0 **** -0.24
31982 H 313.74417529811524 294.48283573763223 94.72754043287776 H 0.0 **** 0.06
31983 H 314.3560127596586 295.2634407360403 96.20521191828996 H 0.0 **** 0.06
31984 H 313.9009189332473 293.54223629901566 96.23035492344593 H 0.0 **** 0.06
31985 H 312.6429185712684 294.79353184475474 96.09028061665649 H 0.0 **** 0.06
31986 C 130.39889367440514 189.93886480756822 151.49880679548602 C 0.0 **** -0.24
31987 H 130.29164820230392 190.9193006300364 151.03528726575468 H 0.0 **** 0.06
31988 H 129.57907282619314 189.77833410337962 152.20071421873627 H 0.0 **** 0.06
31989 H 131.34813689188738 189.89132861292416 152.0314220123601 H 0.0 **** 0.06
31990 H 130.37412586178095 189.168381948954 150.7286580652032 H 0.0 **** 0.06
31991 C 54.41677752253108 87.14641817176951 245.6061498238837 C 0.0 **** -0.24
31992 H 55.49056509741439 86.97586381207404 245.5237616698114 H 0.0 **** 0.06
31993 H 53.887336493319395 86.4506376960662 244.95400483739408 H 0.0 **** 0.06
31994 H 54.18793072587809 88.1694677552671 245.30748271192982 H 0.0 **** 0.06
31995 H 54.10234594168466 86.98893352497845 246.63822478254087 H 0.0 **** 0.06
31996 C 72.99903441135129 5.226158825549589 285.46456789461433 C 0.0 **** -0.24
31997 H 72.70257825107112 4.219720802015701 285.7580156657985 H 0.0 **** 0.06
31998 H 72.49485353520825 5.953420545910589 286.10143945695745 H 0.0 **** 0.06
31999 H 72.71870314711708 5.398196007109348 284.4250372584305 H 0.0 **** 0.06
32000 H 74.07769189818669 5.334097871828661 285.57204129608385 H 0.0 **** 0.06
32001 C 78.75429627373447 176.9350231759754 187.1465439308829 C 0.0 **** -0.24
32002 H 79.78915103420672 177.20606711686975 187.3531042176353 H 0.0 **** 0.06
32003 H 78.46212535485964 177.3309289425883 186.1740182874126 H 0.0 **** 0.06
32004 H 78.10830666586736 177.35383638896872 187.91886981676794 H 0.0 **** 0.06
32005 H 78.65663554245924 175.84932133767296 187.1416194257302 H 0.0 **** 0.06
32006 C 101.79870116739627 174.75874805850123 4.532332619408535 C 0.0 **** -0.24
32007 H 102.1215042383335 175.76536625937433 4.269575473178023 H 0.0 **** 0.06
32008 H 102.563909267334 174.2804528053495 5.143994753323142 H 0.0 **** 0.06
32009 H 101.64373135049922 174.17765737091742 3.6235260853298286 H 0.0 **** 0.06
32010 H 100.86556293352044 174.81242626008964 5.094012280462778 H 0.0 **** 0.06
32011 C 247.44305762722573 193.46049177009695 141.85896708832587 C 0.0 **** -0.24
32012 H 248.3183469941295 193.32486012276217 141.2252495475675 H 0.0 **** 0.06
32013 H 246.57903562622863 193.7003355650404 141.23868143722436 H 0.0 **** 0.06
32014 H 247.62501053032474 194.27623299820266 142.55983280099662 H 0.0 **** 0.06
32015 H 247.2496093136465 192.5422303481455 142.41181250306064 H 0.0 **** 0.06
32016 C 282.8206128535265 142.63132143883266 13.024673428053944 C 0.0 **** -0.24
32017 H 283.32936967098146 141.67363022124167 12.909346120773264 H 0.0 **** 0.06
32018 H 282.7828757554967 143.14133415868392 12.062100684372936 H 0.0 **** 0.06
32019 H 283.36364296619286 143.24658165176174 13.741465945512289 H 0.0 **** 0.06
32020 H 281.8059452097777 142.46186493335765 13.386831434144085 H 0.0 **** 0.06
32021 C 46.538686239471616 279.77128572972515 14.693264018945712 C 0.0 **** -0.24
32022 H 45.57051420658473 280.27144714916636 14.6768683560758 H 0.0 **** 0.06
32023 H 46.62788163704414 279.1815032555393 15.60569164080475 H 0.0 **** 0.06
32024 H 47.33301420377239 280.51729793357913 14.663511237469692 H 0.0 **** 0.06
32025 H 46.62409644868123 279.11546702563476 13.826680915818102 H 0.0 **** 0.06
32026 C 232.20975362716533 73.52917693689145 141.67661402606234 C 0.0 **** -0.24
32027 H 232.9548472000099 74.18641153488451 141.22812812710515 H 0.0 **** 0.06
32028 H 232.64977117018776 72.54568003180788 141.84626000003317 H 0.0 **** 0.06
32029 H 231.35670376502654 73.43557214278201 141.00490395234735 H 0.0 **** 0.06
32030 H 231.88063876103175 73.94929703190732 142.62665921311768 H 0.0 **** 0.06
32031 C 289.49077239134135 265.2098203108835 298.50120868383254 C 0.0 **** -0.24
32032 H 288.57495018813086 265.1892856883519 299.0910335447577 H 0.0 **** 0.06
32033 H 289.60136052749044 266.1891957035745 298.0353015515037 H 0.0 **** 0.06
32034 H 289.44200655326614 264.44263363494815 297.7279003034926 H 0.0 **** 0.06
32035 H 290.34523733243805 265.0173403250638 299.14914962590296 H 0.0 **** 0.06
32036 C 179.37466241838194 233.99073364372714 94.54684764395336 C 0.0 **** -0.24
32037 H 179.33380934783543 234.65022190682083 95.41192601799477 H 0.0 **** 0.06
32038 H 180.00014218875378 234.4407069044464 93.7751602225272 H 0.0 **** 0.06
32039 H 178.36778401887636 233.8411192873326 94.15648654827677 H 0.0 **** 0.06
32040 H 179.79551770588824 233.02940671336978 94.84161316114827 H 0.0 **** 0.06
32041 C 123.0117284964337 310.1658830188699 218.99536837079626 C 0.0 **** -0.24
32042 H 123.895716785953 310.5270816073395 219.52180130840975 H 0.0 **** 0.06
32043 H 123.26273907493214 309.2567603608207 218.44741943202447 H 0.0 **** 0.06
32044 H 122.66901678584034 310.9284034864852 218.29606759933517 H 0.0 **** 0.06
32045 H 122.22271997889166 309.95091046265884 219.71513201494034 H 0.0 **** 0.06
32046 C 269.62235064937516 123.05905000294601 308.72226430445414 C 0.0 **** -0.24
32047 H 270.6711103500335 123.28314625012871 308.91722664010604 H 0.0 **** 0.06
32048 H 269.08111180569097 123.98667167878924 308.5371781390477 H 0.0 **** 0.06
32049 H 269.19280593834634 122.55276578242479 309.58676356970557 H 0.0 **** 0.06
32050 H 269.54573189703785 122.411599425323 307.8481884092194 H 0.0 **** 0.06
32051 C 190.87692275897763 32.20082959980542 48.75929130842212 C 0.0 **** -0.24
32052 H 191.54245388594603 31.382450988229664 49.029955505038515 H 0.0 **** 0.06
32053 H 191.3299129074329 32.790181960761686 47.96193626145765 H 0.0 **** 0.06
32054 H 190.7069947375203 32.83521964871929 49.629601647492905 H 0.0 **** 0.06
32055 H 189.92470742358836 31.795423849467795 48.41473436077649 H 0.0 **** 0.06
32056 C 229.81273483777085 186.29246386235587 236.2459346305386 C 0.0 **** -0.24
32057 H 229.1172159313686 185.52240396033756 236.57742903688643 H 0.0 **** 0.06
32058 H 230.64422159220018 185.82761608599822 235.71488597165026 H 0.0 **** 0.06
32059 H 230.19308865133655 186.83546958295426 237.11129589328925 H 0.0 **** 0.06
32060 H 229.29855105196714 186.9861805512383 235.5804967736179 H 0.0 **** 0.06
32061 C 32.507255989235546 117.09583227029256 275.8150066516155 C 0.0 **** -0.24
32062 H 32.79432458004666 118.12080578700935 276.0465563381825 H 0.0 **** 0.06
32063 H 32.012706627331056 117.06780810712772 274.8443028230796 H 0.0 **** 0.06
32064 H 31.825514120798488 116.7272951309807 276.58150176035826 H 0.0 **** 0.06
32065 H 33.39733367017038 116.46637148104057 275.7880772715845 H 0.0 **** 0.06
32066 C 291.17544354994646 175.030345926471 152.18411958588496 C 0.0 **** -0.24
32067 H 290.1699138686809 175.43891155146088 152.08547102526137 H 0.0 **** 0.06
32068 H 291.73229194358163 175.61117850234632 152.92017103807723 H 0.0 **** 0.06
32069 H 291.68361648974553 175.0807479002973 151.22092580677162 H 0.0 **** 0.06
32070 H 291.11603760004465 173.99188493294548 152.50946409026318 H 0.0 **** 0.06
32071 C 113.42413879359762 51.45177797769466 141.68018525283168 C 0.0 **** -0.24
32072 H 112.99013161103349 52.24913615395249 142.28289252092165 H 0.0 **** 0.06
32073 H 114.33082536808635 51.085270943277294 142.16119502180368 H 0.0 **** 0.06
32074 H 113.66852109949778 51.8374232209664 140.69013000824611 H 0.0 **** 0.06
32075 H 112.707060354108 50.6360360716437 141.58532742939053 H 0.0 **** 0.06
32076 C 17.612987588742698 228.97017670137944 225.70593124296022 C 0.0 **** -0.24
32077 H 18.67661217473706 228.86639285390166 225.49063840880282 H 0.0 **** 0.06
32078 H 17.484362121515417 229.477226227571 226.6618154481652 H 0.0 **** 0.06
32079 H 17.153943151603187 227.9831199652046 225.75248819783695 H 0.0 **** 0.06
32080 H 17.138177705825782 229.5550382680243 224.91754055476525 H 0.0 **** 0.06
32081 C 258.2540058956288 134.52610514091327 35.8993070899829 C 0.0 **** -0.24
32082 H 259.2316593320787 134.87567493052413 36.230411406214216 H 0.0 **** 0.06
32083 H 257.52239769434505 135.3252974468485 36.020746171867245 H 0.0 **** 0.06
32084 H 257.9548924409132 133.6648227502459 36.49684632358807 H 0.0 **** 0.06
32085 H 258.3079504783217 134.23891075961657 34.849612507997506 H 0.0 **** 0.06
32086 C 266.53042352110174 162.33017747034023 37.902315755023494 C 0.0 **** -0.24
32087 H 266.08432357927234 161.68463242033647 37.145547110230154 H 0.0 **** 0.06
32088 H 266.49647219915465 163.36485474051528 37.56210170277302 H 0.0 **** 0.06
32089 H 267.566865556088 162.03371853260535 38.06550386463786 H 0.0 **** 0.06
32090 H 265.97396451347475 162.23510560509942 38.834612951273215 H 0.0 **** 0.06
32091 C 172.2371893988012 277.8960199925901 304.67464662177264 C 0.0 **** -0.24
32092 H 173.28158613732666 278.01088946409584 304.38462626580645 H 0.0 **** 0.06
32093 H 172.1835736666415 277.4678118009464 305.6754130512255 H 0.0 **** 0.06
32094 H 171.73461448578144 277.234550040114 303.96892195235415 H 0.0 **** 0.06
32095 H 171.74994222996355 278.8710908791242 304.66951699501277 H 0.0 **** 0.06
32096 C 285.49749549883984 101.44879456816659 253.36037889644913 C 0.0 **** -0.24
32097 H 285.68318668421455 100.96552617494743 252.4014858935327 H 0.0 **** 0.06
32098 H 284.4478325392798 101.73491880290172 253.42465908130708 H 0.0 **** 0.06
32099 H 286.12361765350295 102.33714200554246 253.44603069034747 H 0.0 **** 0.06
32100 H 285.73645279377746 100.75744360982912 254.16801656900668 H 0.0 **** 0.06
32101 C 220.61965617217905 148.83207334190695 46.731205992351676 C 0.0 **** -0.24
32102 H 220.34751460865107 149.64547946817913 47.404840759315476 H 0.0 **** 0.06
32103 H 221.08235820169904 148.02697475451725 47.30309273982559 H 0.0 **** 0.06
32104 H 221.32407077416167 149.19923993676377 45.9850852861002 H 0.0 **** 0.06
32105 H 219.7252564373046 148.45838207306485 46.23302600646883 H 0.0 **** 0.06
32106 C 35.74787040782749 151.22031592013525 4.457437456781733 C 0.0 **** -0.24
32107 H 35.062735958319934 152.01150357932698 4.15356211672767 H 0.0 **** 0.06
32108 H 36.00007035382464 151.34264582967182 5.510424601542212 H 0.0 **** 0.06
32109 H 36.65559684826522 151.27601164297243 3.856506473963094 H 0.0 **** 0.06
32110 H 35.272224756716184 150.2507541186627 4.308184384017338 H 0.0 **** 0.06
32111 C 4.004729996709258 279.19792198784205 153.0861207703892 C 0.0 **** -0.24
32112 H 4.992534561290341 279.2333516051882 152.626583791756 H 0.0 **** 0.06
32113 H 3.633774244451402 280.2124516801721 153.22794699573143 H 0.0 **** 0.06
32114 H 4.0715688364435465 278.69674736829967 154.05102693878013 H 0.0 **** 0.06
32115 H 3.322949456294765 278.6477718577506 152.43705491699023 H 0.0 **** 0.06
32116 C 197.03566430159947 163.85338029078338 186.13628249701634 C 0.0 **** -0.24
32117 H 197.62327740618065 164.48524104077745 186.803067459768 H 0.0 **** 0.06
32118 H 196.5579719307276 164.47325863240678 185.37678384946742 H 0.0 **** 0.06
32119 H 196.2721591027909 163.33018137085935 186.71151553599077 H 0.0 **** 0.06
32120 H 197.68999571144548 163.126761861283 185.6550856433143 H 0.0 **** 0.06
32121 C 176.85658542902036 40.709075806955695 103.88116787523433 C 0.0 **** -0.24
32122 H 176.19051945407523 41.143157532210154 104.62791986217366 H 0.0 **** 0.06
32123 H 177.3547546856504 39.83641747378178 104.3038689238349 H 0.0 **** 0.06
32124 H 177.60303745110292 41.44701642325134 103.58737819655698 H 0.0 **** 0.06
32125 H 176.2775333976424 40.41068118855179 103.00769850373649 H 0.0 **** 0.06
32126 C 56.062367875201545 43.80648839282492 294.0764314133329 C 0.0 **** -0.24
32127 H 56.22493123551743 44.03799330553409 293.02395197051317 H 0.0 **** 0.06
32128 H 57.00208354949936 43.906040827329434 294.61914414724646 H 0.0 **** 0.06
32129 H 55.69436070194462 42.78443544193388 294.1707173592109 H 0.0 **** 0.06
32130 H 55.328034034046965 44.4966780636087 294.4913234190439 H 0.0 **** 0.06
32131 C 116.05426995316333 225.58272081945174 55.35257536140699 C 0.0 **** -0.24
32132 H 116.83870826469993 225.84926514728775 54.644749815457345 H 0.0 **** 0.06
32133 H 115.1111636890696 225.45861722149235 54.820579853440165 H 0.0 **** 0.06
32134 H 115.9518651296155 226.37439004651074 56.09597528402202 H 0.0 **** 0.06
32135 H 116.3171423815858 224.6489955447997 55.85061306256304 H 0.0 **** 0.06
32136 C 224.76874265715836 144.01670768875445 208.17080241879427 C 0.0 **** -0.24
32137 H 223.96161460813144 144.20271915893338 207.4629328043718 H 0.0 **** 0.06
32138 H 224.61992444915194 143.04548602987208 208.64442461800198 H 0.0 **** 0.06
32139 H 224.76981866655734 144.79642116898017 208.93239882133514 H 0.0 **** 0.06
32140 H 225.72271796105207 144.02216170381325 207.6438975682443 H 0.0 **** 0.06
32141 C 121.24703169097805 240.82681072701934 312.86112287010627 C 0.0 **** -0.24
32142 H 121.72960335612558 241.5214550400314 312.17519633874406 H 0.0 **** 0.06
32143 H 121.44581234280156 239.8030929565211 312.5415113312084 H 0.0 **** 0.06
32144 H 120.1713130502435 241.0049014164783 312.8618053506575 H 0.0 **** 0.06
32145 H 121.64002569329548 240.9762225196418 313.86678393646946 H 0.0 **** 0.06
32146 C 60.37434116878788 149.63167238890583 209.1301406522818 C 0.0 **** -0.24
32147 H 60.553978177410045 150.34471086723806 209.93411889754896 H 0.0 **** 0.06
32148 H 59.77032969962417 150.10414796740116 208.35407085329834 H 0.0 **** 0.06
32149 H 59.84507068581971 148.76465753329433 209.52499802448284 H 0.0 **** 0.06
32150 H 61.327417172488765 149.3140156070067 208.70597246055945 H 0.0 **** 0.06
32151 C 75.97130811684178 58.68303999849425 97.46367952154003 C 0.0 **** -0.24
32152 H 76.30842467930961 59.2446144556809 96.592281849183 H 0.0 **** 0.06
32153 H 75.06288766924195 59.136598896735336 97.85940160029529 H 0.0 **** 0.06
32154 H 76.74865054182249 58.698610716639536 98.22835439499022 H 0.0 **** 0.06
32155 H 75.76834136901698 57.652262093833855 97.17343176571481 H 0.0 **** 0.06
32156 C 169.3361415293794 253.2790028743157 38.843326966448586 C 0.0 **** -0.24
32157 H 170.012969018776 253.8088071419989 39.5135853771952 H 0.0 **** 0.06
32158 H 169.01080611285073 253.95202349324984 38.04970018664679 H 0.0 **** 0.06
32159 H 168.46844032224504 252.93060622325027 39.40357846256225 H 0.0 **** 0.06
32160 H 169.85375789187327 252.4244592854828 38.40652391025071 H 0.0 **** 0.06
32161 C 92.8662654224535 197.6176148145654 61.58546806313447 C 0.0 **** -0.24
32162 H 91.77673296776479 197.64792225834492 61.55257667549344 H 0.0 **** 0.06
32163 H 93.19780219756285 197.59654031766502 62.62358153573385 H 0.0 **** 0.06
32164 H 93.26896274149382 198.5025970342246 61.09328853511556 H 0.0 **** 0.06
32165 H 93.22033249017318 196.7240939356393 61.072382012399885 H 0.0 **** 0.06
32166 C 189.783382875933 155.19966997123015 16.463601810454108 C 0.0 **** -0.24
32167 H 189.35824833601987 156.15954709173906 16.167889293043913 H 0.0 **** 0.06
32168 H 190.3321318845206 154.77242287246628 15.624539959183593 H 0.0 **** 0.06
32169 H 188.98159170251756 154.52270611014535 16.756760795318158 H 0.0 **** 0.06
32170 H 190.4610144043205 155.34674793972846 17.3041343376632 H 0.0 **** 0.06
32171 C 249.60814641095538 120.31931285359809 277.11483770933313 C 0.0 **** -0.24
32172 H 249.20825226602437 119.47733776205331 276.5508359693057 H 0.0 **** 0.06
32173 H 250.0860172362605 119.95349395881408 278.024420782444 H 0.0 **** 0.06
32174 H 248.79820138918942 120.99842820516037 277.37833485228157 H 0.0 **** 0.06
32175 H 250.34225484366806 120.84750183709878 276.50618381932486 H 0.0 **** 0.06
32176 C 34.657830189474794 254.8361621242088 246.71067767028774 C 0.0 **** -0.24
32177 H 34.500010759865205 254.7787664346918 245.63434635231667 H 0.0 **** 0.06
32178 H 34.71084623253924 253.8287798918173 247.12431723536218 H 0.0 **** 0.06
32179 H 33.82948540231098 255.37519033021672 247.17176319605164 H 0.0 **** 0.06
32180 H 35.59097836318375 255.36191184010943 246.91228389742054 H 0.0 **** 0.06
32181 C 296.920694530541 174.34612672108915 220.1245161899111 C 0.0 **** -0.24
32182 H 297.0033707731824 174.46397601525143 219.0445474274004 H 0.0 **** 0.06
32183 H 297.0497627282192 175.31487689157768 220.6071960605563 H 0.0 **** 0.06
32184 H 297.69176001555275 173.65987495390937 220.4751682700834 H 0.0 **** 0.06
32185 H 295.93835615862315 173.94438189799126 220.37206167694234 H 0.0 **** 0.06
32186 C 77.06376064104964 248.47560568905476 179.9665651989083 C 0.0 **** -0.24
32187 H 77.36001205061072 248.47304108848147 178.91813309807867 H 0.0 **** 0.06
32188 H 75.99583196553189 248.68157460548653 180.04219258625739 H 0.0 **** 0.06
32189 H 77.62116590096306 249.2465696294874 180.4998993672766 H 0.0 **** 0.06
32190 H 77.2790375607699 247.502405754779 180.4076559892752 H 0.0 **** 0.06
32191 C 295.9254410979065 264.7018059794691 56.92034273274169 C 0.0 **** -0.24
32192 H 296.2927486990525 264.1123968986546 56.080790228534966 H 0.0 **** 0.06
32193 H 296.03796317509114 264.13116963832675 57.842691529217916 H 0.0 **** 0.06
32194 H 294.8724392144329 264.9372686555141 56.76480909303484 H 0.0 **** 0.06
32195 H 296.4974214512921 265.62710378333543 56.99281894704109 H 0.0 **** 0.06
32196 C 28.82154198874565 201.29144478876646 237.99171187184936 C 0.0 **** -0.24
32197 H 27.80521896468005 201.66472792629395 238.1168580227538 H 0.0 **** 0.06
32198 H 29.048590067813052 200.5830666709931 238.79007455499524 H 0.0 **** 0.06
32199 H 29.522105537527608 202.12517578627381 238.03482435602498 H 0.0 **** 0.06
32200 H 28.908727477843655 200.79232191140494 237.0269438214744 H 0.0 **** 0.06
32201 C 90.80237038023864 215.10429944094943 31.708291389457372 C 0.0 **** -0.24
32202 H 90.15522203084663 214.64106889414836 30.963429774940437 H 0.0 **** 0.06
32203 H 91.32622589431955 214.32864464732012 32.2673409343771 H 0.0 **** 0.06
32204 H 90.19894240620906 215.7022728853534 32.392027299583106 H 0.0 **** 0.06
32205 H 91.52871419653962 215.74637843323922 31.208497847061096 H 0.0 **** 0.06
32206 C 36.55841529886072 240.66841099703728 36.86605910587912 C 0.0 **** -0.24
32207 H 35.7597810457338 241.4099130055989 36.849193454994065 H 0.0 **** 0.06
32208 H 36.163383389224066 239.70125187344166 36.55408575288024 H 0.0 **** 0.06
32209 H 36.95909816720564 240.58873570325235 37.87730558566247 H 0.0 **** 0.06
32210 H 37.351398593279555 240.9737434058562 36.18365162997975 H 0.0 **** 0.06
32211 C 136.9019921231849 187.63303341369829 72.73987127632176 C 0.0 **** -0.24
32212 H 137.76211868984 188.26810195680952 72.52863069487631 H 0.0 **** 0.06
32213 H 137.14853409161185 186.94646360088592 73.55016153463168 H 0.0 **** 0.06
32214 H 136.64395330715672 187.06373145500135 71.84687038082734 H 0.0 **** 0.06
32215 H 136.05527384420807 188.25358582760816 73.03231136426848 H 0.0 **** 0.06
32216 C 300.2356636304967 302.9962235365389 131.16399931633347 C 0.0 **** -0.24
32217 H 299.6940422300008 303.7181190192994 130.55423664749597 H 0.0 **** 0.06
32218 H 300.3540876752817 303.39048568214787 132.17376733948646 H 0.0 **** 0.06
32219 H 301.21778002580146 302.815698357276 130.7265802982797 H 0.0 **** 0.06
32220 H 299.67768176922414 302.0609337848821 131.2014782468697 H 0.0 **** 0.06
32221 C 177.61474901906877 93.11733586302151 42.56689939113505 C 0.0 **** -0.24
32222 H 178.62242023418344 92.75732490232829 42.35943570728432 H 0.0 **** 0.06
32223 H 177.67040013784708 94.04359243646539 43.14013849486665 H 0.0 **** 0.06
32224 H 177.07224424431354 92.36658478181732 43.1415973412733 H 0.0 **** 0.06
32225 H 177.09446247405424 93.30200309040478 41.62772673901591 H 0.0 **** 0.06
32226 C 170.5490268697202 164.4703291433549 118.4383551145657 C 0.0 **** -0.24
32227 H 169.9326764259941 163.5833172956191 118.2908950729375 H 0.0 **** 0.06
32228 H 170.14665507798674 165.05898265824464 119.26350863721083 H 0.0 **** 0.06
32229 H 170.54475088328024 165.06987478491567 117.52794032416287 H 0.0 **** 0.06
32230 H 171.56992097009584 164.16853181870647 118.67062856717996 H 0.0 **** 0.06
32231 C 1.70094235106194 122.92580375274693 234.94201015446208 C 0.0 **** -0.24
32232 H 2.7861626972999716 123.0129746181671 234.8914790832148 H 0.0 **** 0.06
32233 H 1.2716589498627968 123.15883687603824 233.96772648244388 H 0.0 **** 0.06
32234 H 1.315358177281837 123.62231431954552 235.686075489097 H 0.0 **** 0.06
32235 H 1.4315945222528512 121.90691611133903 235.22327707190556 H 0.0 **** 0.06
32236 C 267.74795075672296 31.510300800802725 287.6656091849818 C 0.0 **** -0.24
32237 H 268.29919613483827 32.43779138518431 287.50535280744555 H 0.0 **** 0.06
32238 H 266.91505213783074 31.696988899418244 288.343914276354 H 0.0 **** 0.06
32239 H 268.4113132564181 30.763779047269765 288.10035256622433 H 0.0 **** 0.06
32240 H 267.3651128471072 31.146029238395954 286.71169214522416 H 0.0 **** 0.06
32241 C 220.77868457678065 132.0658379097345 139.54810415340953 C 0.0 **** -0.24
32242 H 220.025485422072 131.5988351396233 138.91452243788288 H 0.0 **** 0.06
32243 H 220.43533905589837 133.0548805744459 139.85138259059698 H 0.0 **** 0.06
32244 H 221.71258375502438 132.15986045497507 138.99275971820256 H 0.0 **** 0.06
32245 H 220.94189062038274 131.45038292038117 140.43193065587153 H 0.0 **** 0.06
32246 C 1.6587326494640706 172.99346833061566 254.23922465027346 C 0.0 **** -0.24
32247 H 2.2772449912593515 173.3842987773604 253.4321847576986 H 0.0 **** 0.06
32248 H 0.9692037450145108 173.76837589608618 254.57639895485863 H 0.0 **** 0.06
32249 H 2.2952101464997554 172.68738049204364 255.068987253173 H 0.0 **** 0.06
32250 H 1.0928071279349751 172.1344566481871 253.87994122500976 H 0.0 **** 0.06
32251 C 51.695423446362895 177.32882909571828 253.8373349467612 C 0.0 **** -0.24
32252 H 52.51997225027716 177.016490884645 253.19593767122268 H 0.0 **** 0.06
32253 H 51.4161662412003 176.50680747147624 254.49543464036154 H 0.0 **** 0.06
32254 H 50.84190038286039 177.60816401473278 253.22004106967887 H 0.0 **** 0.06
32255 H 52.00691357668302 178.18493283184256 254.43564225976027 H 0.0 **** 0.06
32256 C 69.1670296485253 46.400134061822854 276.11093622818794 C 0.0 **** -0.24
32257 H 69.85566682564507 47.24509307262275 276.0981902733464 H 0.0 **** 0.06
32258 H 69.11740471033986 45.98787252675396 277.1186366505175 H 0.0 **** 0.06
32259 H 69.5194752452555 45.634013028895566 275.42115292232256 H 0.0 **** 0.06
32260 H 68.17600727089797 46.73573362606126 275.8060396429024 H 0.0 **** 0.06
32261 C 207.09277319345074 143.91110743475232 196.7952134103029 C 0.0 **** -0.24
32262 H 206.78927783558487 144.39131524129712 197.72492163096314 H 0.0 **** 0.06
32263 H 208.1814744977538 143.897416317981 196.73273638299997 H 0.0 **** 0.06
32264 H 206.68675373519102 144.4668694575671 195.9502127464791 H 0.0 **** 0.06
32265 H 206.71448015494803 142.88904940473822 196.77445021181222 H 0.0 **** 0.06
32266 C 25.233899155439758 294.69224937560256 102.09261001696046 C 0.0 **** -0.24
32267 H 25.73462597792843 295.6566920812411 102.00224812811985 H 0.0 **** 0.06
32268 H 25.980693707715545 293.900593361721 102.15896516422563 H 0.0 **** 0.06
32269 H 24.604367308418432 294.52720609941457 101.21864107173391 H 0.0 **** 0.06
32270 H 24.61692163922163 294.68664141981486 102.99123042945115 H 0.0 **** 0.06
32271 C 93.92207392795967 186.6082045525432 154.3627711063288 C 0.0 **** -0.24
32272 H 93.77081939254901 186.30809275741092 153.32584038241936 H 0.0 **** 0.06
32273 H 92.98604910152929 186.99342892393327 154.7694196843957 H 0.0 **** 0.06
32274 H 94.68563365104188 187.38437977378572 154.40787013590034 H 0.0 **** 0.06
32275 H 94.24456134218829 185.74615360346036 154.94625150568714 H 0.0 **** 0.06
32276 C 210.48007834373024 60.7272337529819 187.07684605753337 C 0.0 **** -0.24
32277 H 209.6017667689 61.2341369345001 187.47718128517948 H 0.0 **** 0.06
32278 H 210.34062267169247 60.54472612870708 186.01168718251165 H 0.0 **** 0.06
32279 H 210.61680900466155 59.776642213394524 187.59291659886048 H 0.0 **** 0.06
32280 H 211.3606376118571 61.35250240068771 187.22757710207742 H 0.0 **** 0.06
32281 C 26.68272315917693 266.322806519056 276.3299947835548 C 0.0 **** -0.24
32282 H 27.424075641990385 265.91601077920086 277.01791707073414 H 0.0 **** 0.06
32283 H 26.291104411355377 267.25812621189567 276.73060953750746 H 0.0 **** 0.06
32284 H 25.867189712781652 265.609031426877 276.2106605105047 H 0.0 **** 0.06
32285 H 27.1475831288175 266.50782558135523 275.36182305123367 H 0.0 **** 0.06
32286 C 45.90006627699205 32.340925684110346 111.32359694639786 C 0.0 **** -0.24
32287 H 46.49806964718488 32.11700556131032 110.44130556076809 H 0.0 **** 0.06
32288 H 46.446917314185725 33.03113485330874 111.96699076173596 H 0.0 **** 0.06
32289 H 45.697885023280946 31.419191067530107 111.8694196176944 H 0.0 **** 0.06
32290 H 44.95813243810136 32.79646101089429 111.0195779420755 H 0.0 **** 0.06
32291 C 239.789292646522 307.461219252365 68.59029437451332 C 0.0 **** -0.24
32292 H 240.68112075388552 308.07308778888427 68.7226494540333 H 0.0 **** 0.06
32293 H 238.9958537398264 307.8313369881211 69.24052965387543 H 0.0 **** 0.06
32294 H 240.01654729262225 306.4269222770087 68.84627179011616 H 0.0 **** 0.06
32295 H 239.4627653452175 307.5157446802029 67.551165770864 H 0.0 **** 0.06
32296 C 84.55543479761567 26.36908778763464 65.96309189225789 C 0.0 **** -0.24
32297 H 84.312951631982 25.984206940609198 66.9541897698106 H 0.0 **** 0.06
32298 H 84.24676298744458 25.6462950229388 65.2082364887518 H 0.0 **** 0.06
32299 H 85.63107063980885 26.532616639515453 65.89080632390642 H 0.0 **** 0.06
32300 H 84.03222084370799 27.311107944669686 65.80156007413228 H 0.0 **** 0.06
32301 C 255.94949410524353 26.024998458285154 120.24868652144437 C 0.0 **** -0.24
32302 H 256.80227084997756 26.696944910090053 120.34082845306071 H 0.0 **** 0.06
32303 H 255.23194418297135 26.236946046033836 121.0419700038897 H 0.0 **** 0.06
32304 H 256.289273790598 24.9929337004844 120.33160484438801 H 0.0 **** 0.06
32305 H 255.47379388329688 26.173702426053637 119.27884798707413 H 0.0 **** 0.06
32306 C 215.9693550744064 49.08219434739118 212.17045183098023 C 0.0 **** -0.24
32307 H 216.69716125171487 49.722467816547834 211.67250765675362 H 0.0 **** 0.06
32308 H 216.12108175335055 49.130456580524594 213.24854742952894 H 0.0 **** 0.06
32309 H 216.0984067276588 48.05451424604141 211.82990575047074 H 0.0 **** 0.06
32310 H 214.96241212649994 49.42104469671585 211.92856200773127 H 0.0 **** 0.06
32311 C 32.52412173278981 313.3277288493754 126.4378327654741 C 0.0 **** -0.24
32312 H 32.302249223922615 314.3554890921134 126.7236855584818 H 0.0 **** 0.06
32313 H 33.56004906309312 313.25843045522095 126.10570078937724 H 0.0 **** 0.06
32314 H 31.862091931300228 313.0236906021013 125.62802931470404 H 0.0 **** 0.06
32315 H 32.372853181140755 312.6719735940885 127.29582706886993 H 0.0 **** 0.06
32316 C 112.1577118504371 103.18165606786957 159.38534323049498 C 0.0 **** -0.24
32317 H 111.67644983196195 103.2250452346135 160.36212549766543 H 0.0 **** 0.06
32318 H 112.8390394080516 104.02600133090573 159.27866526752388 H 0.0 **** 0.06
32319 H 111.39876461218685 103.22622542958709 158.60452634446602 H 0.0 **** 0.06
32320 H 112.71614478307839 102.25005225498214 159.29661136889592 H 0.0 **** 0.06
32321 C 235.2072474303354 205.34354096690595 297.05979224243214 C 0.0 **** -0.24
32322 H 235.71488598354367 205.84976046821038 297.8810030964868 H 0.0 **** 0.06
32323 H 234.86371153946277 204.36436999072174 297.3942285494386 H 0.0 **** 0.06
32324 H 235.89834661549895 205.22089732585613 296.22571562448735 H 0.0 **** 0.06
32325 H 234.35268643145784 205.93895460738685 296.7389676109786 H 0.0 **** 0.06
32326 C 106.41155706777474 207.84223171152456 67.11609229845067 C 0.0 **** -0.24
32327 H 107.17862010196444 207.07009228991393 67.18457127619385 H 0.0 **** 0.06
32328 H 105.67578011323224 207.69390570419654 67.90614737007033 H 0.0 **** 0.06
32329 H 105.92081782291598 207.78068754815848 66.1450713631902 H 0.0 **** 0.06
32330 H 106.87294600217916 208.82330135856859 67.2279714647965 H 0.0 **** 0.06
32331 C 295.139060386556 224.68150945062672 21.953670640549632 C 0.0 **** -0.24
32332 H 294.91454880736336 223.9054261166442 21.22118817346066 H 0.0 **** 0.06
32333 H 294.51384993729255 225.55344342881648 21.761935456176246 H 0.0 **** 0.06
32334 H 296.18939020749076 224.9623530243217 21.874737091383736 H 0.0 **** 0.06
32335 H 294.9384918418385 224.3034063139089 22.955815153096353 H 0.0 **** 0.06
32336 C 313.0798061187886 33.2870364570683 6.1761405344570335 C 0.0 **** -0.24
32337 H 312.71730293811424 33.222992223793426 7.202513339021394 H 0.0 **** 0.06
32338 H 312.7277095462491 32.42185751688416 5.613371700902206 H 0.0 **** 0.06
32339 H 314.1685709313132 33.302733463058274 6.1764954056617825 H 0.0 **** 0.06
32340 H 312.7027716787475 34.19949889388005 5.714334642394348 H 0.0 **** 0.06
32341 C 248.68173064186294 158.98339380220085 310.67923510392814 C 0.0 **** -0.24
32342 H 248.673359328016 157.94491693130112 311.0128667381608 H 0.0 **** 0.06
32343 H 249.23139828708767 159.590678183538 311.3991861544334 H 0.0 **** 0.06
32344 H 247.6574545741134 159.34771945927275 310.60433049928105 H 0.0 **** 0.06
32345 H 249.16402086943953 159.04755001411132 309.70515889783337 H 0.0 **** 0.06
32346 C 2.706138121273 288.1456143267846 229.17515523272513 C 0.0 **** -0.24
32347 H 3.3450180439803887 287.6490932675714 229.9045698102831 H 0.0 **** 0.06
32348 H 3.3009928095797534 288.4354812570006 228.30858704976544 H 0.0 **** 0.06
32349 H 2.263316250922486 289.03392107498684 229.62664639136537 H 0.0 **** 0.06
32350 H 1.9146768294302063 287.4648884611787 228.86173431920668 H 0.0 **** 0.06
32351 C 176.05488827943157 239.87189673684094 187.90731139006454 C 0.0 **** -0.24
32352 H 175.9580634352161 240.66970020681225 188.64287710260942 H 0.0 **** 0.06
32353 H 176.63307642337793 240.23165014495908 187.05648690561156 H 0.0 **** 0.06
32354 H 175.06429887397593 239.56561075264506 187.5708921927549 H 0.0 **** 0.06
32355 H 176.56434455463312 239.02030543873428 188.35990825408305 H 0.0 **** 0.06
32356 C 119.67425008958665 224.70623763366513 9.016856936829768 C 0.0 **** -0.24
32357 H 119.1839280186006 223.89278926263398 8.480507823019138 H 0.0 **** 0.06
32358 H 119.90784536857177 224.38353138423548 10.031281537590786 H 0.0 **** 0.06
32359 H 119.00886995547685 225.56933605912747 9.053486694273928 H 0.0 **** 0.06
32360 H 120.59513841183306 224.9786829051842 8.500116550144867 H 0.0 **** 0.06
32361 C 203.0879570549477 288.465645412671 63.79300867338958 C 0.0 **** -0.24
32362 H 204.1639459995809 288.39528076750344 63.95404891707943 H 0.0 **** 0.06
32363 H 202.87698394378197 289.28299000113253 63.10367238505444 H 0.0 **** 0.06
32364 H 202.59036982119534 288.6536828441849 64.74345289109016 H 0.0 **** 0.06
32365 H 202.72212899536999 287.52978548769835 63.37000703768092 H 0.0 **** 0.06
32366 C 168.62744390758445 70.82031026716083 72.4829107340995 C 0.0 **** -0.24
32367 H 167.65628227720384 70.87506562441413 72.9744372205567 H 0.0 **** 0.06
32368 H 168.50421859656325 70.99522624208174 71.41414215572058 H 0.0 **** 0.06
32369 H 169.06040565245235 69.83271696147088 72.64290430051113 H 0.0 **** 0.06
32370 H 169.28934267997363 71.57935826639866 72.9008718611733 H 0.0 **** 0.06
32371 C 215.93662878285613 144.30866772407688 182.65084816039843 C 0.0 **** -0.24
32372 H 216.66809847631671 144.533193111943 183.42705096057932 H 0.0 **** 0.06
32373 H 216.28275778654046 143.46008953207385 182.06087179292626 H 0.0 **** 0.06
32374 H 215.81600518851485 145.17668029397396 182.00347464196898 H 0.0 **** 0.06
32375 H 214.98010798904082 144.06371005016695 183.11333606533765 H 0.0 **** 0.06
32376 C 11.576845731123512 153.49458119937742 295.95432458163134 C 0.0 **** -0.24
32377 H 10.903852103761196 153.31729589720186 296.79336441987857 H 0.0 **** 0.06
32378 H 12.297577160500254 154.26611895290404 296.22290798756774 H 0.0 **** 0.06
32379 H 10.998675630587115 153.8217421905216 295.08993209415655 H 0.0 **** 0.06
32380 H 12.103752061432118 152.57201422639878 295.71060702041996 H 0.0 **** 0.06
32381 C 119.41341999231773 186.34940073330267 124.72348899363183 C 0.0 **** -0.24
32382 H 118.462789887622 186.744056179207 124.36356561702709 H 0.0 **** 0.06
32383 H 119.34765247998035 185.26383138520606 124.80458264571953 H 0.0 **** 0.06
32384 H 119.63475984016742 186.77403471293343 125.70319354585612 H 0.0 **** 0.06
32385 H 120.2050795633732 186.61563499020832 124.02417948607498 H 0.0 **** 0.06
32386 C 282.8994251506889 307.9999716083029 222.3585243696536 C 0.0 **** -0.24
32387 H 282.06569379967254 308.2781921820217 221.71353933221855 H 0.0 **** 0.06
32388 H 283.8282200435241 308.04048692357514 221.78848409794603 H 0.0 **** 0.06
32389 H 282.74621023821925 306.9873821571077 222.73255263943963 H 0.0 **** 0.06
32390 H 282.9570837324167 308.69271834493844 223.19739253060698 H 0.0 **** 0.06
32391 C 273.4187033908994 269.5724296306112 191.2692774815257 C 0.0 **** -0.24
32392 H 273.77560677362646 268.73916612551926 190.66438802538045 H 0.0 **** 0.06
32393 H 272.3311812093501 269.62632327450916 191.20800484975092 H 0.0 **** 0.06
32394 H 273.84946849313957 270.50213596369457 190.89814016348214 H 0.0 **** 0.06
32395 H 273.7178261013542 269.42216081005927 192.3072559214217 H 0.0 **** 0.06
32396 C 223.78021874951736 192.61114954037606 230.93175185445767 C 0.0 **** -0.24
32397 H 224.38395309793685 193.48353034934138 231.18171767269325 H 0.0 **** 0.06
32398 H 224.42367551604676 191.7344010795776 230.85422844585176 H 0.0 **** 0.06
32399 H 223.27756052609863 192.77825671000738 229.97876221271085 H 0.0 **** 0.06
32400 H 223.03607253044203 192.4480301541327 231.71145873612417 H 0.0 **** 0.06
32401 C 30.625821081179254 18.84613987784401 167.68275133377352 C 0.0 **** -0.24
32402 H 31.234962105039926 18.750592541844426 166.78382237647872 H 0.0 **** 0.06
32403 H 30.259049850964146 17.86266417110565 167.97817941813582 H 0.0 **** 0.06
32404 H 29.78042867605234 19.503832127135055 167.48148053369692 H 0.0 **** 0.06
32405 H 31.228795408386333 19.266522447130896 168.48783692408728 H 0.0 **** 0.06
32406 C 285.5588469882912 152.50664705277933 248.85842309758866 C 0.0 **** -0.24
32407 H 285.8002612564291 153.55443324227804 249.03941924603222 H 0.0 **** 0.06
32408 H 284.4887999887977 152.35142918907945 248.9940445591299 H 0.0 **** 0.06
32409 H 286.1097797180952 151.88081239955676 249.56012920535628 H 0.0 **** 0.06
32410 H 285.83891013680477 152.24080984537227 247.8388297646741 H 0.0 **** 0.06
32411 C 141.6403681058681 38.18333510301591 39.89915880420037 C 0.0 **** -0.24
32412 H 141.23792180135004 39.019798295761404 39.327119773604494 H 0.0 **** 0.06
32413 H 141.1621803665977 37.25872802159063 39.576320486295515 H 0.0 **** 0.06
32414 H 141.44691005570687 38.342202696949926 40.95964615289722 H 0.0 **** 0.06
32415 H 142.71515559529064 38.113918411027726 39.73187304627294 H 0.0 **** 0.06
32416 C 157.63154992911393 79.76896851330883 303.0144085043148 C 0.0 **** -0.24
32417 H 157.60102041301752 80.85252489783352 302.90512970931286 H 0.0 **** 0.06
32418 H 157.3024087062334 79.30099598458887 302.08640305195246 H 0.0 **** 0.06
32419 H 156.97144652113502 79.46633075180824 303.8274879761251 H 0.0 **** 0.06
32420 H 158.65120174460606 79.45532307394276 303.2393175213049 H 0.0 **** 0.06
32421 C 5.328328721983652 253.0136043707994 191.0436676624965 C 0.0 **** -0.24
32422 H 6.3837456705108195 252.7848671160561 191.1912098005751 H 0.0 **** 0.06
32423 H 4.926087100013859 253.47218129774961 191.94689754947046 H 0.0 **** 0.06
32424 H 4.784372694005896 252.09342312506607 190.82955865708476 H 0.0 **** 0.06
32425 H 5.220568875603561 253.70308042570565 190.20665695002526 H 0.0 **** 0.06
32426 C 2.6009188554793354 91.71931385021838 213.1480872171235 C 0.0 **** -0.24
32427 H 2.133700145248838 92.67049223686007 212.88930987638554 H 0.0 **** 0.06
32428 H 3.283354636104093 91.86711903501597 213.98530545892123 H 0.0 **** 0.06
32429 H 3.1542829824429077 91.3405436078998 212.28871384255882 H 0.0 **** 0.06
32430 H 1.830132229675712 91.00136284950864 213.42888552446084 H 0.0 **** 0.06
32431 C 274.4344520200218 230.172082346737 195.06493734310789 C 0.0 **** -0.24
32432 H 273.4742387853205 230.01212365086337 195.5557520853775 H 0.0 **** 0.06
32433 H 274.5428150364727 231.227587284227 194.81622439272138 H 0.0 **** 0.06
32434 H 274.4792544231874 229.57702957559295 194.15283192494314 H 0.0 **** 0.06
32435 H 275.23968102555676 229.87055041751665 195.73572426867082 H 0.0 **** 0.06
32436 C 312.2039036966332 287.42525696844046 199.98869734579137 C 0.0 **** -0.24
32437 H 311.1663776282729 287.21570498341543 199.7276973941697 H 0.0 **** 0.06
32438 H 312.8601851041068 286.74747538213865 199.44182058617253 H 0.0 **** 0.06
32439 H 312.3447116411985 287.28318052789905 201.06032310091587 H 0.0 **** 0.06
32440 H 312.4434884592966 288.4550849753263 199.7238997485535 H 0.0 **** 0.06
32441 C 84.22809290348854 160.663605391661 51.593586477671266 C 0.0 **** -0.24
32442 H 84.96122760690577 159.88161915438855 51.78830775517483 H 0.0 **** 0.06
32443 H 83.32212515581912 160.46150365105962 52.16509997465613 H 0.0 **** 0.06
32444 H 83.99048200906918 160.6801026406411 50.529376320396096 H 0.0 **** 0.06
32445 H 84.63889851480644 161.62868810175638 51.88967001489496 H 0.0 **** 0.06
32446 C 229.46172386122487 26.294889931830994 187.05380080228628 C 0.0 **** -0.24
32447 H 229.25433583179506 25.894146501214436 188.04600806788596 H 0.0 **** 0.06
32448 H 228.97671732486157 27.26595010612334 186.94655270354292 H 0.0 **** 0.06
32449 H 229.0768471349184 25.609990124107185 186.29823114376842 H 0.0 **** 0.06
32450 H 230.538078909889 26.409851526933323 186.92641559799745 H 0.0 **** 0.06
32451 C 181.32818850725323 270.88981471339815 230.97666458929342 C 0.0 **** -0.24
32452 H 180.61752715903924 271.0367910774725 231.7907055906636 H 0.0 **** 0.06
32453 H 181.06420972001132 271.54214005312275 230.14379412847086 H 0.0 **** 0.06
32454 H 181.29516742956366 269.850409086161 230.6492811706044 H 0.0 **** 0.06
32455 H 182.33276783519716 271.13055321745685 231.32319264368823 H 0.0 **** 0.06
32456 C 152.23812345271148 32.04921539352074 156.0591496755129 C 0.0 **** -0.24
32457 H 151.5701694766097 32.904676434227326 155.9545875063597 H 0.0 **** 0.06
32458 H 152.81768834443403 32.15148190529578 156.97630857354272 H 0.0 **** 0.06
32459 H 152.9131130520666 32.00966809602278 155.20437227718645 H 0.0 **** 0.06
32460 H 151.6508164787292 31.13252886188502 156.1008109994703 H 0.0 **** 0.06
32461 C 266.09654834741565 75.23384718965445 69.58029373848655 C 0.0 **** -0.24
32462 H 265.6430558174382 74.93992468148758 68.63459588680277 H 0.0 **** 0.06
32463 H 266.78405100534235 76.06312045445281 69.41136386804385 H 0.0 **** 0.06
32464 H 266.642246123688 74.38901956433244 69.99974882252178 H 0.0 **** 0.06
32465 H 265.3169152251578 75.54450968309595 70.27623365137424 H 0.0 **** 0.06
32466 C 240.72534279571687 37.28267764049309 116.7655285395096 C 0.0 **** -0.24
32467 H 239.89898552697565 36.58303201484594 116.64336058455211 H 0.0 **** 0.06
32468 H 240.57555154045124 38.139840576944295 116.10758656718494 H 0.0 **** 0.06
32469 H 241.6610471206224 36.78724987329963 116.50909124170718 H 0.0 **** 0.06
32470 H 240.7639290417901 37.62141189018166 117.80070850376921 H 0.0 **** 0.06
32471 C 157.39269051193514 18.601746431129385 89.33846328312853 C 0.0 **** -0.24
32472 H 158.1428469481546 18.438902620714757 90.11272652480005 H 0.0 **** 0.06
32473 H 157.82911775870463 19.18447309271177 88.52773506567638 H 0.0 **** 0.06
32474 H 156.54718635477917 19.143698950196125 89.76201202496827 H 0.0 **** 0.06
32475 H 157.05245287929165 17.639994259881746 88.95502428823193 H 0.0 **** 0.06
32476 C 69.47611615840265 237.8125938168385 84.93669412167407 C 0.0 **** -0.24
32477 H 69.93921959659195 238.72513509435205 85.31314860228017 H 0.0 **** 0.06
32478 H 68.55106584417507 237.6230228499553 85.48351596301035 H 0.0 **** 0.06
32479 H 70.15881129961309 236.9750909840734 85.07612042446539 H 0.0 **** 0.06
32480 H 69.25479462318853 237.92870533280583 83.87546735684231 H 0.0 **** 0.06
32481 C 275.24270121894466 177.0326735298775 229.01162224006322 C 0.0 **** -0.24
32482 H 275.7043789265911 176.04712522581207 228.95538539840703 H 0.0 **** 0.06
32483 H 275.6884337035076 177.68586528052043 228.2606645552928 H 0.0 **** 0.06
32484 H 275.4063709398465 177.4536671395902 230.00346141627972 H 0.0 **** 0.06
32485 H 274.1719941971658 176.94311101591381 228.82691062273062 H 0.0 **** 0.06
32486 C 182.8523933378611 38.780638556437964 155.86698215666667 C 0.0 **** -0.24
32487 H 182.596263300009 38.88043298808017 154.8126208233573 H 0.0 **** 0.06
32488 H 181.96124934587766 38.937958160151936 156.47400379915382 H 0.0 **** 0.06
32489 H 183.60821947773383 39.52103042574592 156.12900901813134 H 0.0 **** 0.06
32490 H 183.24558671783774 37.780108993899916 156.05094931863806 H 0.0 **** 0.06
32491 C 210.95385808081596 64.01467783662446 113.58727640840127 C 0.0 **** -0.24
32492 H 211.48422532450385 64.86373156114439 113.15696058685876 H 0.0 **** 0.06
32493 H 210.90258674051833 64.12938671758803 114.67093432547392 H 0.0 **** 0.06
32494 H 211.48415877820042 63.09361779169211 113.34441859827157 H 0.0 **** 0.06
32495 H 209.94434899108379 63.971013899935514 113.17822847799337 H 0.0 **** 0.06
32496 C 200.3145971942921 178.53434243860835 300.500319736553 C 0.0 **** -0.24
32497 H 199.71911095879216 178.06400583701594 301.28344359583775 H 0.0 **** 0.06
32498 H 199.86079436333722 179.4861540246149 300.2219942959117 H 0.0 **** 0.06
32499 H 200.35030208037466 177.88030169423797 299.62936898393315 H 0.0 **** 0.06
32500 H 201.32544143630003 178.70674932304485 300.8676834898854 H 0.0 **** 0.06
32501 C 179.24037926587346 63.075955308923824 246.87889559732986 C 0.0 **** -0.24
32502 H 179.52759007608563 62.061352952889905 246.605148718063 H 0.0 **** 0.06
32503 H 179.2562268497589 63.17801695688598 247.96465552960103 H 0.0 **** 0.06
32504 H 178.23570199545895 63.28200485302901 246.5091206391231 H 0.0 **** 0.06
32505 H 179.94157718075695 63.783706285068035 246.43714296494574 H 0.0 **** 0.06
32506 C 305.07921073033566 266.7861656909514 220.337660056012 C 0.0 **** -0.24
32507 H 305.3856115492036 266.3277485515697 219.39723748296302 H 0.0 **** 0.06
32508 H 304.25430804377845 267.4754096278208 220.15328622515995 H 0.0 **** 0.06
32509 H 305.9193275332211 267.3312461828506 220.76642264614253 H 0.0 **** 0.06
32510 H 304.7568897673624 266.00952634875864 221.03170247680714 H 0.0 **** 0.06
32511 C 232.1003766621552 247.7980925788296 234.23464872224235 C 0.0 **** -0.24
32512 H 232.73445980574203 247.13214700971722 233.64911271372705 H 0.0 **** 0.06
32513 H 231.1298129746812 247.3279999882215 234.3933542201004 H 0.0 **** 0.06
32514 H 231.9665821338649 248.73740844754164 233.6975881340501 H 0.0 **** 0.06
32515 H 232.57162506129276 247.99401405110973 235.19789846861528 H 0.0 **** 0.06
32516 C 272.0270074260128 251.75652486321286 62.32874796970091 C 0.0 **** -0.24
32517 H 271.1729541882668 251.0800320885517 62.28862384509239 H 0.0 **** 0.06
32518 H 272.94931046001096 251.18051539507357 62.25754717393863 H 0.0 **** 0.06
32519 H 272.0116199660518 252.3060127909088 63.26979982361601 H 0.0 **** 0.06
32520 H 271.97174910506044 252.459294553144 61.49697177749627 H 0.0 **** 0.06
32521 C 256.9797362437372 239.8386268640586 4.718097121666872 C 0.0 **** -0.24
32522 H 257.2554021508399 239.93841452553517 5.767446479903114 H 0.0 **** 0.06
32523 H 256.01308310741933 240.3128992847612 4.548814120364156 H 0.0 **** 0.06
32524 H 256.91562016445977 238.78170673021611 4.459061776889143 H 0.0 **** 0.06
32525 H 257.73558154728687 240.31949967132925 4.096358772552122 H 0.0 **** 0.06
32526 C 228.0803882036665 115.07666740744406 199.2285331520896 C 0.0 **** -0.24
32527 H 227.31294231631927 114.3202225031664 199.39015079693343 H 0.0 **** 0.06
32528 H 228.20359407817398 115.6694489315405 200.134947917727 H 0.0 **** 0.06
32529 H 227.78065738756106 115.7272534983847 198.40652248960134 H 0.0 **** 0.06
32530 H 229.0235953239768 114.59022237583599 198.98046479854992 H 0.0 **** 0.06
32531 C 194.78234518893953 250.48845038274536 60.57316324540011 C 0.0 **** -0.24
32532 H 194.9937554166953 250.63332166557797 59.51383686706595 H 0.0 **** 0.06
32533 H 195.679859696351 250.12657226607138 61.0761317272524 H 0.0 **** 0.06
32534 H 193.98161340332013 249.7570942642356 60.68686983852626 H 0.0 **** 0.06
32535 H 194.47440276858953 251.43607404952667 61.01518949158242 H 0.0 **** 0.06
32536 C 273.5987382598172 63.151860381416355 171.76395986316027 C 0.0 **** -0.24
32537 H 272.93846086627013 62.43545549695119 171.27469801386695 H 0.0 **** 0.06
32538 H 274.3101059638981 63.545539922405936 171.03683761354426 H 0.0 **** 0.06
32539 H 274.14011684393546 62.6550488947739 172.5690480106545 H 0.0 **** 0.06
32540 H 273.00713231629607 63.97055260410494 172.17312462226772 H 0.0 **** 0.06
32541 C 9.881269759786221 157.41182485173113 156.5826926467421 C 0.0 **** -0.24
32542 H 8.809460165195688 157.53483438062358 156.42991766568707 H 0.0 **** 0.06
32543 H 10.420504503867107 158.14057749795046 155.97788373534854 H 0.0 **** 0.06
32544 H 10.177391486236715 156.40531859071996 156.28996681582544 H 0.0 **** 0.06
32545 H 10.11760710648663 157.56795827789995 157.63632748480592 H 0.0 **** 0.06
32546 C 280.55190286768146 299.66536950269705 225.8137332228194 C 0.0 **** -0.24
32547 H 280.12811568188386 300.60925184902595 226.15700263373267 H 0.0 **** 0.06
32548 H 280.2997503717302 299.51464901466886 224.76413672771724 H 0.0 **** 0.06
32549 H 280.1456767610501 298.84677102356915 226.40721298386856 H 0.0 **** 0.06
32550 H 281.63593381034974 299.6933158842129 225.92768614547947 H 0.0 **** 0.06
32551 C 71.79941744400304 308.18123091605264 46.575506828807505 C 0.0 **** -0.24
32552 H 71.44741464025407 308.73813846471955 47.444369512007995 H 0.0 **** 0.06
32553 H 71.31081903398308 308.5618405310111 45.678038016591216 H 0.0 **** 0.06
32554 H 71.56012656745497 307.1250833330978 46.69979081649208 H 0.0 **** 0.06
32555 H 72.87856488136663 308.30036403638815 46.480921120624515 H 0.0 **** 0.06
32556 C 218.81322245695924 221.43666016250933 55.877310432281746 C 0.0 **** -0.24
32557 H 219.35458631972534 220.52388911217474 56.12695123363929 H 0.0 **** 0.06
32558 H 218.63693068903797 221.47155573583368 54.802004957725785 H 0.0 **** 0.06
32559 H 219.40446070391567 222.30161461387164 56.17736789466008 H 0.0 **** 0.06
32560 H 217.85890733720646 221.44871134253674 56.40342997120803 H 0.0 **** 0.06
32561 C 147.33903081413496 188.5775920104751 110.95586081649287 C 0.0 **** -0.24
32562 H 147.7721354569745 187.8842169128369 110.23564301083672 H 0.0 **** 0.06
32563 H 147.91811206720905 188.55101967446956 111.87893457478984 H 0.0 **** 0.06
32564 H 146.30895078469484 188.289570972163 111.16382562272949 H 0.0 **** 0.06
32565 H 147.35800972717064 189.58742740134903 110.54445877482328 H 0.0 **** 0.06
32566 C 91.91393977858343 220.77564397046626 113.66183929724323 C 0.0 **** -0.24
32567 H 91.40943913566724 221.67549664715193 114.01294413760331 H 0.0 **** 0.06
32568 H 91.17083887592807 220.0501357125383 113.32951089016768 H 0.0 **** 0.06
32569 H 92.50168522962218 220.34813540721453 114.47367059705897 H 0.0 **** 0.06
32570 H 92.57162313157025 221.02928231558423 112.830998432299 H 0.0 **** 0.06
32571 C 51.35940711780944 302.542902955823 206.1772912667277 C 0.0 **** -0.24
32572 H 50.57384412812752 303.266415705178 205.9595886252019 H 0.0 **** 0.06
32573 H 50.92277332812915 301.5476906918242 206.26674984779197 H 0.0 **** 0.06
32574 H 51.85034029740049 302.8108511377649 207.11374187532203 H 0.0 **** 0.06
32575 H 52.092188595417724 302.54806190715266 205.3699301055978 H 0.0 **** 0.06
32576 C 131.888176130993 243.4017278856946 129.49789728297304 C 0.0 **** -0.24
32577 H 131.27753879026946 243.18303101098059 128.62227289889486 H 0.0 **** 0.06
32578 H 132.67633326056014 244.10400718327097 129.22487076231624 H 0.0 **** 0.06
32579 H 132.3357322282024 242.47916994300044 129.8682751095251 H 0.0 **** 0.06
32580 H 131.26434281858374 243.84011199322902 130.27584439913326 H 0.0 **** 0.06
32581 C 235.0562346644302 313.3893767782283 279.7204007495101 C 0.0 **** -0.24
32582 H 234.81802803894905 313.9452020067725 278.81343092111223 H 0.0 **** 0.06
32583 H 234.14212879494085 313.210630363411 280.2874946863031 H 0.0 **** 0.06
32584 H 235.75328637941098 313.9668980044546 280.3277906497274 H 0.0 **** 0.06
32585 H 235.51075406228335 312.4353645308473 279.45256292471106 H 0.0 **** 0.06
32586 C 218.77025943174488 55.14128469276858 79.08567717713407 C 0.0 **** -0.24
32587 H 218.79132132620623 55.033528404096444 80.17045334386637 H 0.0 **** 0.06
32588 H 219.27320490428775 54.290409771467125 78.62672176802712 H 0.0 **** 0.06
32589 H 219.28116324748717 56.061614497765305 78.80335344559916 H 0.0 **** 0.06
32590 H 217.73552924552905 55.180692632884586 78.74435795894584 H 0.0 **** 0.06
32591 C 44.99026863885402 50.131012975157944 153.9448243452715 C 0.0 **** -0.24
32592 H 44.96772098676459 50.75998958306897 154.83512507141262 H 0.0 **** 0.06
32593 H 44.24281232081651 50.48379411379392 153.23294101284318 H 0.0 **** 0.06
32594 H 44.77033169177599 49.10012949016553 154.22251001301674 H 0.0 **** 0.06
32595 H 45.97901747155396 50.18202058136552 153.4889150124203 H 0.0 **** 0.06
32596 C 123.21462976765119 166.58307586505003 266.9833250743491 C 0.0 **** -0.24
32597 H 122.81236267467105 167.59465015913048 266.91690226384316 H 0.0 **** 0.06
32598 H 124.0715553038932 166.5778382776897 267.65780157371876 H 0.0 **** 0.06
32599 H 123.52813397948708 166.25158496165812 265.99414196008246 H 0.0 **** 0.06
32600 H 122.44541318146202 165.9122655416014 267.3657210766154 H 0.0 **** 0.06
32601 C 136.305577796537 84.32003639405372 283.5550578217261 C 0.0 **** -0.24
32602 H 136.230417760668 85.35104083887143 283.9019067188154 H 0.0 **** 0.06
32603 H 135.42576296761086 83.76322402955671 283.8783119164562 H 0.0 **** 0.06
32604 H 137.20084545434787 83.8605195814589 283.9745616622299 H 0.0 **** 0.06
32605 H 136.36575472736195 84.30583638979266 282.4666973814594 H 0.0 **** 0.06
32606 C 177.30578283117904 3.9667212892478005 202.04654894581603 C 0.0 **** -0.24
32607 H 178.2570152412635 3.522725885663533 201.75349718856995 H 0.0 **** 0.06
32608 H 176.49096467558508 3.441565989382383 201.54780388478372 H 0.0 **** 0.06
32609 H 177.2923256770746 5.018425724701913 201.75740876644085 H 0.0 **** 0.06
32610 H 177.18439717706116 3.885288353154877 203.12635705212602 H 0.0 **** 0.06
32611 C 229.86690448316665 81.58852427746623 174.89621125184698 C 0.0 **** -0.24
32612 H 229.42640493835412 82.14717813564036 174.070910480071 H 0.0 **** 0.06
32613 H 229.97981827357358 80.54270162916035 174.60742617220632 H 0.0 **** 0.06
32614 H 229.21769555664986 81.65563531064271 175.76882870864193 H 0.0 **** 0.06
32615 H 230.8439204448565 82.00654729786899 175.13677914410954 H 0.0 **** 0.06
32616 C 167.37864760579617 77.90308798279591 188.11034996357404 C 0.0 **** -0.24
32617 H 166.45183074674844 78.17398575763187 187.60378875378416 H 0.0 **** 0.06
32618 H 167.14502114573747 77.3996420130118 189.04934473993353 H 0.0 **** 0.06
32619 H 167.95771480773266 78.80344265035598 188.31445286897286 H 0.0 **** 0.06
32620 H 167.95731383468967 77.23408619175507 187.47429073358722 H 0.0 **** 0.06
32621 C 220.02866084623145 81.99106505198031 217.37665920483755 C 0.0 **** -0.24
32622 H 219.152373451534 82.34410054671574 216.8333142962863 H 0.0 **** 0.06
32623 H 219.93297247210023 82.25205790756996 218.43078529592805 H 0.0 **** 0.06
32624 H 220.92388288659836 82.45917644818607 216.9654359368705 H 0.0 **** 0.06
32625 H 220.1067146095214 80.90902899792655 217.27502784281413 H 0.0 **** 0.06
32626 C 260.2062399630959 182.5704813380563 211.8978081512196 C 0.0 **** -0.24
32627 H 260.27470362197784 181.9621987310204 212.8006854160493 H 0.0 **** 0.06
32628 H 260.74038363801793 182.07668592181233 211.0865036658209 H 0.0 **** 0.06
32629 H 260.65026017206304 183.54799710113565 212.08515898655475 H 0.0 **** 0.06
32630 H 259.1582839571065 182.69417052397 211.62212073566016 H 0.0 **** 0.06
32631 C 169.58670108543924 58.91453878567236 85.85016862981564 C 0.0 **** -0.24
32632 H 170.33233312091 58.196167601439754 85.5098304771378 H 0.0 **** 0.06
32633 H 168.81286739319182 59.02281056903354 85.09022521915932 H 0.0 **** 0.06
32634 H 170.06397824804122 59.88005597881488 86.02293268186344 H 0.0 **** 0.06
32635 H 169.13866417871145 58.5602366642629 86.77850870049309 H 0.0 **** 0.06
32636 C 45.16918836333153 293.26107189235427 312.1942297304182 C 0.0 **** -0.24
32637 H 44.21619456398406 293.421862933306 311.6890481643395 H 0.0 **** 0.06
32638 H 45.168026653676236 292.27706670897476 312.66484401712455 H 0.0 **** 0.06
32639 H 45.31082786060685 294.02803386015364 312.95565861254676 H 0.0 **** 0.06
32640 H 45.978767508223115 293.3162182680312 311.4669781701043 H 0.0 **** 0.06
32641 C 225.49745414337212 231.0322384733229 87.1301044898832 C 0.0 **** -0.24
32642 H 225.2953453680305 230.1127056697844 86.57989923668717 H 0.0 **** 0.06
32643 H 224.72222324062275 231.7660468039833 86.90957392246162 H 0.0 **** 0.06
32644 H 226.46805091926257 231.42817459852427 86.83004810062886 H 0.0 **** 0.06
32645 H 225.50600842099348 230.82105006983477 88.19956820313692 H 0.0 **** 0.06
32646 C 267.46024123409984 122.38753041443638 108.01707813164751 C 0.0 **** -0.24
32647 H 266.80494212695754 123.03393076982903 108.60192085924328 H 0.0 **** 0.06
32648 H 266.8643769937332 121.6240320706228 107.51705569659615 H 0.0 **** 0.06
32649 H 268.1832385283804 121.91052574126317 108.67783814753156 H 0.0 **** 0.06
32650 H 267.98690374598766 122.98410495115192 107.27229106804128 H 0.0 **** 0.06
32651 C 267.42411265561304 68.63119344573454 84.24975763695477 C 0.0 **** -0.24
32652 H 267.8230062439116 68.24661221221231 83.31089953710764 H 0.0 **** 0.06
32653 H 266.3521680437198 68.80419641628569 84.14472392892336 H 0.0 **** 0.06
32654 H 267.92167645814993 69.5679755603619 84.49992534133179 H 0.0 **** 0.06
32655 H 267.59950128762046 67.90314474084573 85.04253457056063 H 0.0 **** 0.06
32656 C 308.9889221485704 124.96955427161345 277.5988755957262 C 0.0 **** -0.24
32657 H 309.05103610275677 126.05043326147154 277.72268517995184 H 0.0 **** 0.06
32658 H 309.54483136768147 124.47961335683772 278.39862255110893 H 0.0 **** 0.06
32659 H 309.41556640874126 124.68962628008563 276.6348463678882 H 0.0 **** 0.06
32660 H 307.9446575958015 124.65870383228395 277.6384470595852 H 0.0 **** 0.06
32661 C 254.3658850658434 134.52855070660343 129.10335284679212 C 0.0 **** -0.24
32662 H 255.23765553052522 134.50179403177808 128.4486302392161 H 0.0 **** 0.06
32663 H 253.9407284116697 135.53186758491503 129.10150679318795 H 0.0 **** 0.06
32664 H 254.66491945774806 134.26239931852288 130.1169431086165 H 0.0 **** 0.06
32665 H 253.62131352142484 133.81729281074124 128.7459850107539 H 0.0 **** 0.06
32666 C 22.937446506019654 308.71878130275377 125.97317425944263 C 0.0 **** -0.24
32667 H 22.380150982946105 308.0955764464187 126.67256096002569 H 0.0 **** 0.06
32668 H 22.255793240866637 309.1186101856059 125.22153601755869 H 0.0 **** 0.06
32669 H 23.705809651062026 308.1189531475986 125.48444568881484 H 0.0 **** 0.06
32670 H 23.406669311676893 309.54124015704764 126.51254587438908 H 0.0 **** 0.06
32671 C 153.9842122598447 108.01237850739753 236.68957846175067 C 0.0 **** -0.24
32672 H 152.95617522812847 107.675421629671 236.82431626620564 H 0.0 **** 0.06
32673 H 154.6686334541816 107.2286536542758 237.01514463897212 H 0.0 **** 0.06
32674 H 154.15258806685813 108.91146630245967 237.28237865946448 H 0.0 **** 0.06
32675 H 154.15847469754993 108.23377316663971 235.63640641519777 H 0.0 **** 0.06
32676 C 230.42409802746658 58.731910568158725 210.33298810000878 C 0.0 **** -0.24
32677 H 231.17564558848156 58.99554107507004 209.58779176599091 H 0.0 **** 0.06
32678 H 229.59625732694545 59.43931192537036 210.27946757531205 H 0.0 **** 0.06
32679 H 230.86990749113403 58.76944448386905 211.32677704929654 H 0.0 **** 0.06
32680 H 230.05593002562586 57.7254955158196 210.13666843811916 H 0.0 **** 0.06
32681 C 60.281303261333846 314.15381875797334 168.5583771816332 C 0.0 **** -0.24
32682 H 60.983402634525106 313.8264058117355 169.32407201328408 H 0.0 **** 0.06
32683 H 60.78745468277393 314.19002295360747 167.59262081788864 H 0.0 **** 0.06
32684 H 59.90629331326545 315.1455608493006 168.80885773533055 H 0.0 **** 0.06
32685 H 59.4479723392968 313.45228589105864 168.50595994674842 H 0.0 **** 0.06
32686 C 179.9712203290341 32.11739538363511 29.312506170060914 C 0.0 **** -0.24
32687 H 178.98572807949841 32.57591055814564 29.23007309813164 H 0.0 **** 0.06
32688 H 180.53651259344883 32.306934383533275 28.399367090479274 H 0.0 **** 0.06
32689 H 179.8602633210516 31.04223981506442 29.455518052392733 H 0.0 **** 0.06
32690 H 180.50072950677247 32.54446303716091 30.163555284513706 H 0.0 **** 0.06
32691 C 141.98619563680674 125.8056476849417 155.7230898390505 C 0.0 **** -0.24
32692 H 142.2754788638478 124.92944420317622 155.14218276688325 H 0.0 **** 0.06
32693 H 142.4588155328808 125.76154021398278 156.70520201324092 H 0.0 **** 0.06
32694 H 140.9028637620974 125.82147723473756 155.84031535791235 H 0.0 **** 0.06
32695 H 142.30949006932823 126.7074406516493 155.20411922289168 H 0.0 **** 0.06
32696 C 190.76703989303275 141.10913661038123 149.59495533701505 C 0.0 **** -0.24
32697 H 190.57259077593466 141.70705021944724 150.48618831086156 H 0.0 **** 0.06
32698 H 191.16719128925598 140.13926113099322 149.88900084480366 H 0.0 **** 0.06
32699 H 191.489310680649 141.62524672189437 148.96180873805883 H 0.0 **** 0.06
32700 H 189.83766627420954 140.96748333954775 149.04372546171282 H 0.0 **** 0.06
32701 C 262.6094344144328 207.79548860729125 253.2246459912796 C 0.0 **** -0.24
32702 H 263.46341582337294 207.22122778382618 253.5851520438093 H 0.0 **** 0.06
32703 H 262.91413828227604 208.82628605142105 253.04461396448005 H 0.0 **** 0.06
32704 H 261.816477338135 207.77572433838793 253.97236706191177 H 0.0 **** 0.06
32705 H 262.24391631786284 207.3569521097805 252.29509307731752 H 0.0 **** 0.06
32706 C 157.48780107245295 76.4998961018045 189.15525425484026 C 0.0 **** -0.24
32707 H 158.38737775021542 77.11649540731506 189.14348761447997 H 0.0 **** 0.06
32708 H 156.83688908850746 76.79193744586769 188.3317423920538 H 0.0 **** 0.06
32709 H 156.9638312095176 76.64156135998894 190.10041873079717 H 0.0 **** 0.06
32710 H 157.76425311928045 75.45194585981562 189.04682963442752 H 0.0 **** 0.06
32711 C 274.14169539832665 67.81766575453665 215.70335455284075 C 0.0 **** -0.24
32712 H 273.4536986977827 67.84626156967056 214.85821245190186 H 0.0 **** 0.06
32713 H 274.2745827999441 66.78575234592833 216.02850375878327 H 0.0 **** 0.06
32714 H 273.73449611687823 68.40828741170267 216.52366495186521 H 0.0 **** 0.06
32715 H 275.10424436866595 68.23034727039737 215.40081398173527 H 0.0 **** 0.06
32716 C 46.57025506239236 166.48770724523752 136.85623634742365 C 0.0 **** -0.24
32717 H 46.95420830453918 165.66958447153814 137.46583735307658 H 0.0 **** 0.06
32718 H 45.86868143109706 167.08003710387914 137.44374560602014 H 0.0 **** 0.06
32719 H 46.06092169190126 166.0810967234665 135.9832490934313 H 0.0 **** 0.06
32720 H 47.39838628140447 167.1184921758005 136.533110357431 H 0.0 **** 0.06
32721 C 301.76341996363385 228.01016587937383 172.80546202249548 C 0.0 **** -0.24
32722 H 302.2605318504644 228.51160505954368 173.63628142148985 H 0.0 **** 0.06
32723 H 300.7042620980907 227.89328518289477 173.0345163127173 H 0.0 **** 0.06
32724 H 302.2125999012722 227.02885848193512 172.65302998955707 H 0.0 **** 0.06
32725 H 301.87672409482053 228.60683383523957 171.900987109112 H 0.0 **** 0.06
32726 C 66.17442522072523 216.39025325622117 283.91160250910787 C 0.0 **** -0.24
32727 H 66.80250376883953 215.5470843663934 284.20061101131614 H 0.0 **** 0.06
32728 H 65.21217543103438 216.02040600346947 283.5549658453819 H 0.0 **** 0.06
32729 H 66.66486905055197 216.9525980504641 283.11712624673766 H 0.0 **** 0.06
32730 H 66.01762202109418 217.03865133667398 284.7729648199928 H 0.0 **** 0.06
32731 C 89.7220325151755 307.7000966495969 281.05944649254366 C 0.0 **** -0.24
32732 H 90.31585564811556 308.53475454090153 280.6861870071176 H 0.0 **** 0.06
32733 H 90.20626371967094 307.27479071997124 281.93802167598733 H 0.0 **** 0.06
32734 H 89.64025426353012 306.93836124150215 280.2838693931451 H 0.0 **** 0.06
32735 H 88.72691576610208 308.0550598552178 281.3272582319352 H 0.0 **** 0.06
32736 C 179.1423038459074 211.3315919041699 13.47161361394312 C 0.0 **** -0.24
32737 H 179.42040635101677 212.3170436722039 13.846919042775497 H 0.0 **** 0.06
32738 H 179.5570907497701 210.56345666207008 14.124130604580529 H 0.0 **** 0.06
32739 H 179.5360877313642 211.2040829334053 12.463029425112353 H 0.0 **** 0.06
32740 H 178.05611046711687 211.24509042515388 13.450690270700164 H 0.0 **** 0.06
32741 C 61.52425366934847 260.0205163353472 302.2430719511151 C 0.0 **** -0.24
32742 H 62.15795474120381 259.1578343097229 302.03502861780623 H 0.0 **** 0.06
32743 H 60.90423466871695 259.81303384912906 303.1154742715859 H 0.0 **** 0.06
32744 H 60.8859081404205 260.2189198830822 301.3818685083869 H 0.0 **** 0.06
32745 H 62.14950148012275 260.8913162772141 302.4407737145306 H 0.0 **** 0.06
32746 C 22.35592402170309 47.186479814994556 224.328254454 C 0.0 **** -0.24
32747 H 21.55635680195988 46.4777680687304 224.5431690190169 H 0.0 **** 0.06
32748 H 23.222169562328787 46.64948450747701 223.94149089053707 H 0.0 **** 0.06
32749 H 22.630843880295686 47.71177535915328 225.24287952055343 H 0.0 **** 0.06
32750 H 22.012351652346382 47.90601135660961 223.5849054520998 H 0.0 **** 0.06
32751 C 119.30634309295667 273.76198808862614 196.36012090393479 C 0.0 **** -0.24
32752 H 118.4026408484419 274.05592019735053 195.82559352224854 H 0.0 **** 0.06
32753 H 119.03348813556224 273.1938960512889 197.24921086411064 H 0.0 **** 0.06
32754 H 119.86059139133462 274.65252551851853 196.65338912813473 H 0.0 **** 0.06
32755 H 119.92743177714419 273.1448476873254 195.7103079117163 H 0.0 **** 0.06
32756 C 231.8913811427089 272.7992733518382 249.1726333493784 C 0.0 **** -0.24
32757 H 231.46628799461362 271.79521559884074 249.14909190020995 H 0.0 **** 0.06
32758 H 231.08833335042019 273.53472730124804 249.13222198430535 H 0.0 **** 0.06
32759 H 232.5519233772593 272.9340543038933 248.315844341873 H 0.0 **** 0.06
32760 H 232.45928536372833 272.9310111762227 250.09412306468613 H 0.0 **** 0.06
32761 C 123.03894284295805 215.16176090901877 110.32971779900112 C 0.0 **** -0.24
32762 H 123.92066129431842 214.52207179000834 110.3628199408285 H 0.0 **** 0.06
32763 H 123.34170611082632 216.18712989155887 110.11443377954515 H 0.0 **** 0.06
32764 H 122.52965628183645 215.1279582674194 111.29371569199685 H 0.0 **** 0.06
32765 H 122.36374568894243 214.8101894050281 109.55011685814108 H 0.0 **** 0.06
32766 C 227.83973385766197 35.23617071490972 239.3231134894537 C 0.0 **** -0.24
32767 H 228.6962287473263 34.58197948821618 239.48018889927775 H 0.0 **** 0.06
32768 H 228.1092279911958 36.02468377760482 238.61944636764989 H 0.0 **** 0.06
32769 H 227.5438715012334 35.68269046070634 240.27236526433342 H 0.0 **** 0.06
32770 H 227.00943315058254 34.656414804327255 238.91956402395195 H 0.0 **** 0.06
32771 C 192.6911084452907 37.42048672362296 101.68220744149289 C 0.0 **** -0.24
32772 H 193.68046789991394 36.988160873327956 101.53135459789993 H 0.0 **** 0.06
32773 H 192.78776876747793 38.379433641341734 102.1935869009362 H 0.0 **** 0.06
32774 H 192.08883875160637 36.74400624248602 102.28886197738692 H 0.0 **** 0.06
32775 H 192.20924245775615 37.57038541949362 100.71659111169734 H 0.0 **** 0.06
32776 C 225.481154405539 77.78230177160677 290.6963471140633 C 0.0 **** -0.24
32777 H 225.85634301845155 78.77859948511167 290.4630046200881 H 0.0 **** 0.06
32778 H 224.76531152466916 77.47563924955358 289.9334149942912 H 0.0 **** 0.06
32779 H 224.98969379758296 77.79857572498105 291.66965486797307 H 0.0 **** 0.06
32780 H 226.3122236205529 77.07750525735796 290.7209475800336 H 0.0 **** 0.06
32781 C 38.140940583401175 252.81653442165896 268.2572892348878 C 0.0 **** -0.24
32782 H 38.408389456668516 253.03583937077605 267.22451056493736 H 0.0 **** 0.06
32783 H 38.97437133548519 253.07484804804454 268.9112583518381 H 0.0 **** 0.06
32784 H 37.917248489493716 251.75410836337858 268.3569991670625 H 0.0 **** 0.06
32785 H 37.26414516740013 253.3999205334086 268.5380699185898 H 0.0 **** 0.06
32786 C 301.08668420989886 194.45521803774733 34.009991693868585 C 0.0 **** -0.24
32787 H 300.2726983607954 195.16786031230373 34.14080978668113 H 0.0 **** 0.06
32788 H 302.0037911467597 194.99232356903127 33.768482142028034 H 0.0 **** 0.06
32789 H 300.84147176313036 193.76983600171587 33.19901039434836 H 0.0 **** 0.06
32790 H 301.2267822033258 193.89175928134955 34.932115941989935 H 0.0 **** 0.06
32791 C 307.27979870826834 71.56538701355052 306.92513704454245 C 0.0 **** -0.24
32792 H 306.6015541290272 71.99084052433383 307.66393874000175 H 0.0 **** 0.06
32793 H 306.9551683195218 71.85513397912857 305.9253904967293 H 0.0 **** 0.06
32794 H 307.27201375095683 70.47829707400496 307.0088162593105 H 0.0 **** 0.06
32795 H 308.2886910959164 71.93773599839633 307.1015874100841 H 0.0 **** 0.06
32796 C 253.9179240374345 98.90080321642026 255.69646612320113 C 0.0 **** -0.24
32797 H 253.60944681096993 99.84845099975121 255.25419038048668 H 0.0 **** 0.06
32798 H 254.49887456402888 98.33308349569381 254.96979828080228 H 0.0 **** 0.06
32799 H 253.03533213605493 98.3290893274584 255.98312639994776 H 0.0 **** 0.06
32800 H 254.5281400137712 99.09357818737104 256.5786393608233 H 0.0 **** 0.06
32801 C 94.4766110893072 213.00189000281387 178.50953872360594 C 0.0 **** -0.24
32802 H 93.84933643609867 213.8373903517072 178.81964197183623 H 0.0 **** 0.06
32803 H 93.94711574517243 212.06491180114733 178.68496359193318 H 0.0 **** 0.06
32804 H 95.40207628772205 213.00897849713192 179.08483627011123 H 0.0 **** 0.06
32805 H 94.70858273810373 213.0948259254039 177.44804759157427 H 0.0 **** 0.06
32806 C 143.0060181306768 79.10042071471617 197.26387011342433 C 0.0 **** -0.24
32807 H 143.64581466312208 79.9704584549861 197.41242676505118 H 0.0 **** 0.06
32808 H 143.26876435426158 78.6124832048952 196.326040303772 H 0.0 **** 0.06
32809 H 141.96319639551098 79.41806226351767 197.22823260480538 H 0.0 **** 0.06
32810 H 143.1443722077451 78.40285768157679 198.08952095433307 H 0.0 **** 0.06
32811 C 274.2522282091694 277.4186501467522 276.49910406889046 C 0.0 **** -0.24
32812 H 274.9132018111756 277.7431099428311 275.69635187722355 H 0.0 **** 0.06
32813 H 273.30855376665227 277.96179079642496 276.4356837436674 H 0.0 **** 0.06
32814 H 274.722775755396 277.61939191800394 277.46149437280957 H 0.0 **** 0.06
32815 H 274.06358403311043 276.3493765720343 276.40359099660145 H 0.0 **** 0.06
32816 C 149.03819808982973 239.72366414475505 56.23153044115193 C 0.0 **** -0.24
32817 H 150.04443257387646 239.40294619393077 55.96240870719447 H 0.0 **** 0.06
32818 H 148.9409034720353 240.79552116753345 56.059941896700735 H 0.0 **** 0.06
32819 H 148.85641119999462 239.50573639746855 57.28400912229188 H 0.0 **** 0.06
32820 H 148.31060405066376 239.1898558190568 55.61909192057726 H 0.0 **** 0.06
32821 C 125.76220751284734 225.9725565051629 4.687864503270973 C 0.0 **** -0.24
32822 H 126.80186945961822 226.0083364387589 5.0137374600139 H 0.0 **** 0.06
32823 H 125.64608516749945 226.56495887876332 3.779618179765478 H 0.0 **** 0.06
32824 H 125.12257199781419 226.37829525527513 5.471048913325433 H 0.0 **** 0.06
32825 H 125.47985025767235 224.93936572623824 4.4856133109625205 H 0.0 **** 0.06
32826 C 252.52516285668787 179.58502450004454 291.7605330546804 C 0.0 **** -0.24
32827 H 253.06115370876728 179.84530671556382 290.84796233225194 H 0.0 **** 0.06
32828 H 251.76150835643244 180.33789983199216 291.95997952927274 H 0.0 **** 0.06
32829 H 253.22573647450992 179.548605958042 292.59464674281224 H 0.0 **** 0.06
32830 H 252.05275706107966 178.61046271562486 291.6396180427274 H 0.0 **** 0.06
32831 C 51.0906260557212 132.38451523142402 308.59808609282317 C 0.0 **** -0.24
32832 H 50.09292894800129 131.9700400363877 308.45162740818586 H 0.0 **** 0.06
32833 H 51.505533968963334 132.6813540748465 307.6345107312796 H 0.0 **** 0.06
32834 H 51.73309871652805 131.6310951275374 309.05392529425967 H 0.0 **** 0.06
32835 H 51.03091939545908 133.2543220237197 309.25161926323517 H 0.0 **** 0.06
32836 C 37.797155106671795 281.3962752801704 204.88800350197982 C 0.0 **** -0.24
32837 H 37.82584301884813 280.6625492901716 205.6941012188509 H 0.0 **** 0.06
32838 H 38.53379497727727 281.13219023377786 204.12922017363258 H 0.0 **** 0.06
32839 H 38.02581895727653 282.38389322316414 205.28787596873235 H 0.0 **** 0.06
32840 H 36.802566876505864 281.4065594970704 204.4420956219949 H 0.0 **** 0.06
32841 C 228.71922707684251 62.392741787055115 7.867433737759654 C 0.0 **** -0.24
32842 H 228.34220540651827 63.41377467327041 7.922966193767465 H 0.0 **** 0.06
32843 H 229.74550522915882 62.40389466844823 7.499754367500984 H 0.0 **** 0.06
32844 H 228.09590675858198 61.811712808507934 7.186978403769089 H 0.0 **** 0.06
32845 H 228.69267724091688 61.94212804102986 8.859462823544106 H 0.0 **** 0.06
32846 C 150.35431340825966 46.70228413205865 227.99788134768875 C 0.0 **** -0.24
32847 H 150.04735691701802 45.85692432397764 228.61490959984383 H 0.0 **** 0.06
32848 H 150.36015920158667 46.402223724435146 226.94937768322308 H 0.0 **** 0.06
32849 H 151.35405969641437 47.021449830473216 228.29145410477759 H 0.0 **** 0.06
32850 H 149.65373871986634 47.525736585840264 228.13696230549692 H 0.0 **** 0.06
32851 C 150.03994499339882 251.97330956470446 279.48079291478916 C 0.0 **** -0.24
32852 H 149.9335498054483 250.9308972692965 279.77988490254296 H 0.0 **** 0.06
32853 H 151.06094195606784 252.15304534937985 279.14436521221035 H 0.0 **** 0.06
32854 H 149.8181713686709 252.61956466493442 280.3311294145605 H 0.0 **** 0.06
32855 H 149.3459113674943 252.19097694941365 278.6695225642147 H 0.0 **** 0.06
32856 C 23.743031507995028 283.3069005380694 275.47548382853176 C 0.0 **** -0.24
32857 H 24.800552339819433 283.2228239274426 275.726458259734 H 0.0 **** 0.06
32858 H 23.633203847621502 283.88997085043394 274.55996361832933 H 0.0 **** 0.06
32859 H 23.2150337755169 283.80439562169613 276.2890269351676 H 0.0 **** 0.06
32860 H 23.32584978253351 282.31182816247065 275.3256648755038 H 0.0 **** 0.06
32861 C 251.94287576047356 163.36948954830967 64.99051870650158 C 0.0 **** -0.24
32862 H 251.03861200939747 162.79119727905066 65.17886802941112 H 0.0 **** 0.06
32863 H 251.76561375906897 164.4145837348687 65.2425636822949 H 0.0 **** 0.06
32864 H 252.21246176072177 163.28895827234487 63.93785472961983 H 0.0 **** 0.06
32865 H 252.75572991173897 162.98065163616945 65.60404259182036 H 0.0 **** 0.06
32866 C 214.8792684740088 77.2846268612254 77.92192522173681 C 0.0 **** -0.24
32867 H 215.6819204673526 77.99870013367496 78.10955116539398 H 0.0 **** 0.06
32868 H 215.08500423758284 76.74029007156852 77.00048200423234 H 0.0 **** 0.06
32869 H 213.93304700090528 77.81829145232493 77.82626758584973 H 0.0 **** 0.06
32870 H 214.81706079952914 76.58193406529932 78.7529802082556 H 0.0 **** 0.06
32871 C 172.5047012914585 170.83078795757683 25.899097228832716 C 0.0 **** -0.24
32872 H 172.96572698184082 169.85423408709374 26.054748156460278 H 0.0 **** 0.06
32873 H 171.45835941810236 170.79006311404453 26.20321813418292 H 0.0 **** 0.06
32874 H 172.56622348223732 171.0964014757867 24.843959405183114 H 0.0 **** 0.06
32875 H 173.02813539136787 171.5779001231765 26.49408840214892 H 0.0 **** 0.06
32876 C 105.6673685050788 145.29362059088552 103.98934364413424 C 0.0 **** -0.24
32877 H 106.12239728681973 144.5712817875864 103.3115185843013 H 0.0 **** 0.06
32878 H 104.58399617223174 145.17730375107897 103.96949096258376 H 0.0 **** 0.06
32879 H 105.93076627916855 146.30341634695353 103.67345047080084 H 0.0 **** 0.06
32880 H 106.03394340060615 145.12266786321024 105.00176962320074 H 0.0 **** 0.06
32881 C 74.78979179925742 57.31745221878083 173.3018563894815 C 0.0 **** -0.24
32882 H 75.01151542341233 58.095694681428455 174.03219648443144 H 0.0 **** 0.06
32883 H 75.6977845607685 57.069040282187615 172.7510397128106 H 0.0 **** 0.06
32884 H 74.02968011466075 57.67650138031874 172.60779567322658 H 0.0 **** 0.06
32885 H 74.42201595978125 56.42985731510248 173.8164616439263 H 0.0 **** 0.06
32886 C 177.22318063563114 86.28615651812987 56.11396483399716 C 0.0 **** -0.24
32887 H 176.60198728651903 86.20632745824139 57.00682792555318 H 0.0 **** 0.06
32888 H 176.58812271630126 86.28007988630793 55.22831994930482 H 0.0 **** 0.06
32889 H 177.91118429950393 85.44208706373354 56.074555936146595 H 0.0 **** 0.06
32890 H 177.7906920634286 87.2158254504892 56.14904763795349 H 0.0 **** 0.06
32891 C 101.22726147847533 157.28174146059428 176.60478542907526 C 0.0 **** -0.24
32892 H 101.11107026246995 156.97237004727145 175.5666932972165 H 0.0 **** 0.06
32893 H 102.25903408573186 157.58799914669902 176.77922129004645 H 0.0 **** 0.06
32894 H 100.9787862192594 156.44844155163975 177.26258985330435 H 0.0 **** 0.06
32895 H 100.56072193215076 158.11887352750637 176.8110408131024 H 0.0 **** 0.06
32896 C 96.04392797703892 105.76363157640955 245.04387609134645 C 0.0 **** -0.24
32897 H 95.86919145555666 104.72800997183933 244.75107343904867 H 0.0 **** 0.06
32898 H 95.09728125008502 106.22488914287823 245.32826981351823 H 0.0 **** 0.06
32899 H 96.477858193571 106.31007378016432 244.2061650208916 H 0.0 **** 0.06
32900 H 96.72945232693672 105.79005014301669 245.8901389164326 H 0.0 **** 0.06
32901 C 230.74638229145475 148.07904064960442 35.836615551908324 C 0.0 **** -0.24
32902 H 230.5371304192701 149.12277324874105 35.60013876688686 H 0.0 **** 0.06
32903 H 229.87067603085603 147.6291220831736 36.30285280074128 H 0.0 **** 0.06
32904 H 231.5925696385456 148.02529943981156 36.522628097262015 H 0.0 **** 0.06
32905 H 230.98764728030673 147.5412115667986 34.9199796204021 H 0.0 **** 0.06
32906 C 274.9394616624695 75.92537166777959 114.72696893709787 C 0.0 **** -0.24
32907 H 275.3524803360402 76.89397448971738 114.44531755939579 H 0.0 **** 0.06
32908 H 274.5080179739725 75.99254273232953 115.72655772729055 H 0.0 **** 0.06
32909 H 275.73104079281336 75.17699157140396 114.72249061869795 H 0.0 **** 0.06
32910 H 274.16455074767526 75.63960710472205 114.01531520050108 H 0.0 **** 0.06
32911 C 255.30320638335215 135.9912983002709 69.52413785809634 C 0.0 **** -0.24
32912 H 254.7687713037703 136.92987228423368 69.3793160032597 H 0.0 **** 0.06
32913 H 255.51862752332957 135.8566872094925 70.58410009156461 H 0.0 **** 0.06
32914 H 256.2373626075766 136.0140384649541 68.9635681653316 H 0.0 **** 0.06
32915 H 254.6872410738595 135.16448327473458 69.17071176923534 H 0.0 **** 0.06
32916 C 263.7890202501839 45.36616277578398 80.5019130556845 C 0.0 **** -0.24
32917 H 263.08471079132374 45.653378960030864 79.72120927105041 H 0.0 **** 0.06
32918 H 264.00865247680935 44.30166864987507 80.42083722556237 H 0.0 **** 0.06
32919 H 263.35334826050433 45.57394516578117 81.47924552011347 H 0.0 **** 0.06
32920 H 264.71089162088674 45.93725224021085 80.38673773440476 H 0.0 **** 0.06
32921 C 6.186171584760629 9.501239013334555 0.8588215195756419 C 0.0 **** -0.24
32922 H 6.680644945736162 9.789963253634795 -0.0686048967844215 H 0.0 **** 0.06
32923 H 6.542695214854319 10.134191987456887 1.6722769822385857 H 0.0 **** 0.06
32924 H 6.413392385242204 8.458963936413596 1.0810324967695095 H 0.0 **** 0.06
32925 H 5.108394657622739 9.622561682526765 0.7485126035392113 H 0.0 **** 0.06
32926 C 107.19017615113387 152.1047902391477 186.82772495692137 C 0.0 **** -0.24
32927 H 107.02775356614549 153.05018419886483 186.31003439781188 H 0.0 **** 0.06
32928 H 108.26033621925137 151.90980430119947 186.89987247381322 H 0.0 **** 0.06
32929 H 106.71057164680735 151.29920309931651 186.27129056564354 H 0.0 **** 0.06
32930 H 106.76267236099784 152.16048772160542 187.8281741779042 H 0.0 **** 0.06
32931 C 31.57161918980296 65.86488340082451 40.01778701385305 C 0.0 **** -0.24
32932 H 31.635842227009277 65.33156007601295 40.96668584225364 H 0.0 **** 0.06
32933 H 32.40315226854722 65.56685130851645 39.37727317967472 H 0.0 **** 0.06
32934 H 31.62067411258346 66.9383964107964 40.20049383484093 H 0.0 **** 0.06
32935 H 30.629723009114713 65.62118953406889 39.527074031873326 H 0.0 **** 0.06
32936 C 175.2864532400555 133.753707527991 11.801729294397234 C 0.0 **** -0.24
32937 H 175.85664391738266 132.83561655461278 11.656182357157249 H 0.0 **** 0.06
32938 H 175.91316448913074 134.6122498565681 11.56018337591945 H 0.0 **** 0.06
32939 H 174.96335950438709 133.819575939986 12.83997547610197 H 0.0 **** 0.06
32940 H 174.41310256161154 133.745073919875 11.148722090523748 H 0.0 **** 0.06
32941 C 285.88889370872323 172.6479364762916 177.42207514608862 C 0.0 **** -0.24
32942 H 286.8874041288626 172.32793113066623 177.1211883269242 H 0.0 **** 0.06
32943 H 285.2469378649711 171.77417256865834 177.53728227116028 H 0.0 **** 0.06
32944 H 285.47379927978227 173.30602612579247 176.65882290895547 H 0.0 **** 0.06
32945 H 285.9493046460628 173.18296212750863 178.3699719877951 H 0.0 **** 0.06
32946 C 182.0711529491138 208.28842087739724 297.672127561095 C 0.0 **** -0.24
32947 H 182.28098469292866 208.03422959723366 296.63397883637845 H 0.0 **** 0.06
32948 H 181.78035776768525 209.33673435025472 297.73773528766657 H 0.0 **** 0.06
32949 H 182.96343108554748 208.12057543500492 298.2747858241855 H 0.0 **** 0.06
32950 H 181.25979794332846 207.6617241375343 298.04336010840416 H 0.0 **** 0.06
32951 C 154.88301085309348 56.37216060309609 205.2917052236112 C 0.0 **** -0.24
32952 H 154.3205276884654 56.42293251331654 206.22332169354587 H 0.0 **** 0.06
32953 H 154.71322525989302 57.281188021248056 204.71410124301445 H 0.0 **** 0.06
32954 H 154.5524062696922 55.50827816105161 204.71371379396487 H 0.0 **** 0.06
32955 H 155.9459897158565 56.275606877074466 205.51332125735598 H 0.0 **** 0.06
32956 C 188.8655482901276 187.65418968381675 150.5233673102365 C 0.0 **** -0.24
32957 H 188.46415445695737 188.666778852839 150.56623357044015 H 0.0 **** 0.06
32958 H 188.37040631550929 187.03465605218275 151.2702326584091 H 0.0 **** 0.06
32959 H 189.93659483461613 187.67933258544838 150.7232509821174 H 0.0 **** 0.06
32960 H 188.6916042439213 187.23679768572742 149.53150958891462 H 0.0 **** 0.06
32961 C 185.65761217659417 185.68100875789412 288.97930032883403 C 0.0 **** -0.24
32962 H 184.65092230283238 186.0184787104788 289.223363586193 H 0.0 **** 0.06
32963 H 186.38378399315638 186.27132646343568 289.5380962209762 H 0.0 **** 0.06
32964 H 185.8332485614655 185.80665932110708 287.91011972959745 H 0.0 **** 0.06
32965 H 185.76176485430017 184.6289454723759 289.2428689321591 H 0.0 **** 0.06
32966 C 108.64351815794166 70.62332466220954 223.91166535911822 C 0.0 **** -0.24
32967 H 107.98322906784387 71.4774473757947 224.05832159895013 H 0.0 **** 0.06
32968 H 109.50644581109015 70.71400257770242 224.5716295493904 H 0.0 **** 0.06
32969 H 108.9796884216195 70.59907028990784 222.87467566149147 H 0.0 **** 0.06
32970 H 108.10557419427772 69.70388823934888 224.14029672472378 H 0.0 **** 0.06
32971 C 296.1251525166992 25.60889187797369 46.78015407369696 C 0.0 **** -0.24
32972 H 296.8738680613731 25.116263392961912 47.39963494826861 H 0.0 **** 0.06
32973 H 295.92457574135545 26.60512401443333 47.17492089023028 H 0.0 **** 0.06
32974 H 295.2054628943314 25.023389565858906 46.78732300801471 H 0.0 **** 0.06
32975 H 296.4957897580479 25.690991566539225 45.75838402788838 H 0.0 **** 0.06
32976 C 196.7052380589031 222.18356928269168 106.14107753933487 C 0.0 **** -0.24
32977 H 195.85147171514893 222.84332956800944 106.29442271985403 H 0.0 **** 0.06
32978 H 196.608924675575 221.68419654090326 105.17625685479658 H 0.0 **** 0.06
32979 H 196.7356730172782 221.43751962776608 106.93579760332668 H 0.0 **** 0.06
32980 H 197.62459683899215 222.7692792756298 106.15687594102903 H 0.0 **** 0.06
32981 C 40.62456236270856 58.53699143384313 240.97295473530133 C 0.0 **** -0.24
32982 H 40.96066854519111 58.86628834948999 239.98973424858872 H 0.0 **** 0.06
32983 H 39.62766623418571 58.93314195631342 241.16807066391334 H 0.0 **** 0.06
32984 H 41.31586779114244 58.90163776387399 241.7336414085853 H 0.0 **** 0.06
32985 H 40.59592287120773 57.447775446485565 241.00121534282943 H 0.0 **** 0.06
32986 C 65.22215422741883 11.854618976723188 164.69226977289134 C 0.0 **** -0.24
32987 H 65.44719428672013 10.81225549867112 164.4644305627998 H 0.0 **** 0.06
32988 H 65.66021440193381 12.495258805306122 163.92701214128874 H 0.0 **** 0.06
32989 H 65.6390520990478 12.11145824028955 165.66509457649636 H 0.0 **** 0.06
32990 H 64.14122636627121 11.996349622645724 164.7107558822272 H 0.0 **** 0.06
32991 C 0.5431778988707947 82.03593080076197 15.811730829245775 C 0.0 **** -0.24
32992 H 1.2428072731535167 82.51421766233841 15.12583158788155 H 0.0 **** 0.06
32993 H 0.06687910657190343 82.79526826684315 16.432280122171363 H 0.0 **** 0.06
32994 H 1.0819754114052387 81.33263410639731 16.446565728579202 H 0.0 **** 0.06
32995 H -0.2167119400616997 81.50181452917352 15.241273476592298 H 0.0 **** 0.06
32996 C 289.4020971068268 259.1046510044218 11.234182419992294 C 0.0 **** -0.24
32997 H 289.78098031711704 258.44627815547625 12.016605617236152 H 0.0 **** 0.06
32998 H 289.9786914605455 260.0300868692885 11.229008939733134 H 0.0 **** 0.06
32999 H 288.3538020692812 259.33085866604677 11.424860029012194 H 0.0 **** 0.06
33000 H 289.49860735097616 258.61181895347363 10.266668754416955 H 0.0 **** 0.06
33001 C 23.060629083196545 187.1292404078627 152.64382607734933 C 0.0 **** -0.24
33002 H 22.06303181471418 187.3143249289085 153.04129023537934 H 0.0 **** 0.06
33003 H 23.616499171288524 186.49677945527583 153.33708212334716 H 0.0 **** 0.06
33004 H 23.58290118230758 188.07801899013242 152.51794355521952 H 0.0 **** 0.06
33005 H 22.979732075662923 186.62910469105321 151.67951011146818 H 0.0 **** 0.06
33006 C 241.88299135220117 164.81120487868782 7.537633778099718 C 0.0 **** -0.24
33007 H 241.44535716266716 163.87590229309643 7.888369782820618 H 0.0 **** 0.06
33008 H 241.82971961930173 165.5569955398219 8.331112678038238 H 0.0 **** 0.06
33009 H 241.33288942281396 165.1663507681107 6.666824034404627 H 0.0 **** 0.06
33010 H 242.92559191353044 164.6434888703921 7.265687525123937 H 0.0 **** 0.06
33011 C 275.72441570427475 265.1383888523764 32.645800736435945 C 0.0 **** -0.24
33012 H 276.6005335222082 264.58045251454433 32.97640920926267 H 0.0 **** 0.06
33013 H 275.8083096166645 265.3478750709069 31.579612815032817 H 0.0 **** 0.06
33014 H 275.6619021924822 266.07644822263035 33.198166586734715 H 0.0 **** 0.06
33015 H 274.8273888695936 264.5464773868822 32.83087917947853 H 0.0 **** 0.06
33016 C 84.91223470644653 197.69792017904547 300.1196754444593 C 0.0 **** -0.24
33017 H 84.87836727559917 198.25094457911467 301.05786484743413 H 0.0 **** 0.06
33018 H 85.32250803858861 198.3358677437668 299.33692577370124 H 0.0 **** 0.06
33019 H 83.90408457541287 197.38702801643103 299.8442435472877 H 0.0 **** 0.06
33020 H 85.54380977102727 196.81692251931332 300.2400266709117 H 0.0 **** 0.06
33021 C 244.48483664253854 157.92518419548213 146.92203209214975 C 0.0 **** -0.24
33022 H 245.1143862300551 158.4255805254184 146.18634045892622 H 0.0 **** 0.06
33023 H 243.4809768506882 157.79739801048248 146.5152550455936 H 0.0 **** 0.06
33024 H 244.43515856623634 158.52993578523507 147.82796252930785 H 0.0 **** 0.06
33025 H 244.90786045686463 156.9493442603391 147.15989470382587 H 0.0 **** 0.06
33026 C 292.4917451603818 170.25350895696926 170.43039671493864 C 0.0 **** -0.24
33027 H 291.52541663195234 169.76153924964183 170.53982400034874 H 0.0 **** 0.06
33028 H 293.1789091944472 169.58878055327727 169.9055385474294 H 0.0 **** 0.06
33029 H 292.89381540189396 170.48747548222764 171.4158968588651 H 0.0 **** 0.06
33030 H 292.36919677534524 171.17292863926673 169.8593768523516 H 0.0 **** 0.06
33031 C 18.78209195992882 229.80176078551332 109.67721848227472 C 0.0 **** -0.24
33032 H 18.22422464782072 229.51335625118838 110.56806203538673 H 0.0 **** 0.06
33033 H 19.661901546000095 230.3751765420579 109.96921131175955 H 0.0 **** 0.06
33034 H 18.147673244951974 230.41312522497395 109.03385639488206 H 0.0 **** 0.06
33035 H 19.092626530726477 228.90837869471903 109.1372267588597 H 0.0 **** 0.06
33036 C 176.19824515506178 231.42681562575825 198.5812043239668 C 0.0 **** -0.24
33037 H 176.08591632432052 232.17295970115254 197.7939523903164 H 0.0 **** 0.06
33038 H 175.93719337771608 230.44321044088917 198.18892360034033 H 0.0 **** 0.06
33039 H 175.53793134116324 231.6741434718354 199.4116884889022 H 0.0 **** 0.06
33040 H 177.23106229661516 231.41739794875485 198.92801032850713 H 0.0 **** 0.06
33041 C 142.68324160671503 54.484885180255304 292.0060571664359 C 0.0 **** -0.24
33042 H 143.28496088258728 54.74424415226554 291.1360013184336 H 0.0 **** 0.06
33043 H 143.32147428223632 54.03822744257198 292.7690874879268 H 0.0 **** 0.06
33044 H 141.91144646762592 53.77196278201296 291.7142965255464 H 0.0 **** 0.06
33045 H 142.2144907579833 55.383903118125716 292.40528985014487 H 0.0 **** 0.06
33046 C 167.59534707018628 97.0587689750376 49.33186136916848 C 0.0 **** -0.24
33047 H 168.48876604929802 97.6772185348361 49.41686736185778 H 0.0 **** 0.06
33048 H 166.74615779146018 97.6848568809043 49.058201265213114 H 0.0 **** 0.06
33049 H 167.39771968285606 96.57342568162144 50.28783660684971 H 0.0 **** 0.06
33050 H 167.75082137652026 96.30040149300243 48.56447499156499 H 0.0 **** 0.06
33051 C 32.174478799533006 94.00479366731497 58.2184837337507 C 0.0 **** -0.24
33052 H 32.50983183486653 95.01705061858311 57.991625719917636 H 0.0 **** 0.06
33053 H 31.184323877325795 93.845616830387 57.791214128629434 H 0.0 **** 0.06
33054 H 32.13075002464194 93.86969917211849 59.29888579712042 H 0.0 **** 0.06
33055 H 32.874193343831905 93.287297256096 57.79037649904001 H 0.0 **** 0.06
33056 C 306.63346007606606 15.072074432947531 205.84091172828562 C 0.0 **** -0.24
33057 H 305.9662346983935 14.50273081430403 205.19399018118634 H 0.0 **** 0.06
33058 H 306.742602585231 16.08410196483706 205.44928110695503 H 0.0 **** 0.06
33059 H 307.6092566500653 14.58755513193259 205.87250986602567 H 0.0 **** 0.06
33060 H 306.2163957896018 15.113670188451778 206.8471440694246 H 0.0 **** 0.06
33061 C 252.21137220343533 154.84219060021536 149.0237852852896 C 0.0 **** -0.24
33062 H 251.39560403380557 154.4397222112973 148.4222532041239 H 0.0 **** 0.06
33063 H 252.5058188070959 155.8160119212571 148.62998636295345 H 0.0 **** 0.06
33064 H 253.06108046033873 154.16138176828906 148.98435740472593 H 0.0 **** 0.06
33065 H 251.88070013892914 154.953022165478 150.05592030289165 H 0.0 **** 0.06
33066 C 96.70039631620352 115.32434300471354 35.72919319917466 C 0.0 **** -0.24
33067 H 96.13017537051735 116.19227175201655 35.395172060184194 H 0.0 **** 0.06
33068 H 97.7378639401004 115.61463470586 35.8960764192874 H 0.0 **** 0.06
33069 H 96.65751805953664 114.54693078079032 34.966655962575544 H 0.0 **** 0.06
33070 H 96.27441846210604 114.94599218876974 36.65825933048029 H 0.0 **** 0.06
33071 C 230.21611382374127 68.16093646125708 188.96987678762008 C 0.0 **** -0.24
33072 H 231.0741377773969 67.77154668260104 189.51814483031046 H 0.0 **** 0.06
33073 H 229.86345785971866 67.40689655399697 188.26652201426327 H 0.0 **** 0.06
33074 H 230.51002196784333 69.0571394339411 188.42506711740026 H 0.0 **** 0.06
33075 H 229.4187635032205 68.40636769364477 189.67080640098408 H 0.0 **** 0.06
33076 C 244.98976794643244 262.5042481632856 258.0729200622709 C 0.0 **** -0.24
33077 H 245.8623139211776 262.6894934057732 258.6993440974411 H 0.0 **** 0.06
33078 H 245.17327758172874 262.89267087006124 257.07109254966025 H 0.0 **** 0.06
33079 H 244.12221934452154 263.0042203668149 258.50368864200425 H 0.0 **** 0.06
33080 H 244.80227548202194 261.4323912237356 258.01996138816105 H 0.0 **** 0.06
33081 C 59.02098105319325 234.17485128600944 154.03386696662773 C 0.0 **** -0.24
33082 H 58.953981384612575 234.4281413821596 155.09206237532317 H 0.0 **** 0.06
33083 H 58.037811764368996 234.27845420005738 153.57237054659282 H 0.0 **** 0.06
33084 H 59.36501284438728 233.14611712371467 153.92765256480112 H 0.0 **** 0.06
33085 H 59.72515253803476 234.84581118777626 153.54278278232488 H 0.0 **** 0.06
33086 C 237.1439803939911 96.9414439554746 74.2945811500139 C 0.0 **** -0.24
33087 H 236.40953889862152 97.63886460682463 73.89005737949964 H 0.0 **** 0.06
33088 H 236.70478864018872 95.94549651286738 74.35259533091048 H 0.0 **** 0.06
33089 H 237.44275848274413 97.26695898978832 75.29107799730042 H 0.0 **** 0.06
33090 H 238.01719262710114 96.91632486549051 73.64324961087394 H 0.0 **** 0.06
33091 C 53.137623692055485 67.35320150356921 98.11841396333563 C 0.0 **** -0.24
33092 H 53.81877135036248 66.61622629859019 98.54246674239121 H 0.0 **** 0.06
33093 H 53.64806754523087 67.91009952643998 97.33214300593147 H 0.0 **** 0.06
33094 H 52.81341703692365 68.04034171712752 98.90002686114133 H 0.0 **** 0.06
33095 H 52.26830628592583 66.8451217402473 97.6995004196954 H 0.0 **** 0.06
33096 C 89.52929350343786 215.9118381398883 204.83980912969884 C 0.0 **** -0.24
33097 H 89.89429209808634 215.5462526313256 205.799589631461 H 0.0 **** 0.06
33098 H 88.43945485465517 215.92350833098058 204.84604414327794 H 0.0 **** 0.06
33099 H 89.88213450293011 215.2565810822557 204.04349087240706 H 0.0 **** 0.06
33100 H 89.90238523732035 216.92234862125406 204.66998722328015 H 0.0 **** 0.06
33101 C 222.58707260478863 196.4032590629016 58.76286315390661 C 0.0 **** -0.24
33102 H 221.9268969706735 197.2559454050717 58.599264587291174 H 0.0 **** 0.06
33103 H 222.40483030221247 195.98794899251033 59.753369909386976 H 0.0 **** 0.06
33104 H 223.62493942465565 196.72807344454992 58.68782694574824 H 0.0 **** 0.06
33105 H 222.38949759110363 195.64276138458945 58.0066768341552 H 0.0 **** 0.06
33106 C 215.51657881313247 89.96846951547349 145.89342463157632 C 0.0 **** -0.24
33107 H 214.84417909280427 90.18096719182066 145.0623995401463 H 0.0 **** 0.06
33108 H 215.4387761722246 88.91456880303983 146.1624439468197 H 0.0 **** 0.06
33109 H 215.24182325737732 90.58350985670975 146.74922548716705 H 0.0 **** 0.06
33110 H 216.54177322906227 90.19283172254296 145.59823594393856 H 0.0 **** 0.06
33111 C 260.0447560602887 65.75537645372171 28.764398561013934 C 0.0 **** -0.24
33112 H 261.08284637868314 66.0846723452076 28.800717336089065 H 0.0 **** 0.06
33113 H 259.3863894542534 66.61616564750315 28.880836206288933 H 0.0 **** 0.06
33114 H 259.86049450947354 65.04577749490204 29.571016406423183 H 0.0 **** 0.06
33115 H 259.8484697110807 65.27499973886 27.80616830259953 H 0.0 **** 0.06
33116 C 97.19735975618099 312.9391643008583 222.5996964948659 C 0.0 **** -0.24
33117 H 96.38279578627561 312.36863632965327 223.04753321686826 H 0.0 **** 0.06
33118 H 97.51556068945911 313.7205187946049 223.29005485997058 H 0.0 **** 0.06
33119 H 96.85546416203616 313.3921059194459 221.66910117863586 H 0.0 **** 0.06
33120 H 98.03577545859508 312.27319227311693 222.39315419234194 H 0.0 **** 0.06
33121 C 310.84797428763795 49.72017745139709 250.906734524873 C 0.0 **** -0.24
33122 H 310.9992684980761 49.575937929113394 249.83762958819133 H 0.0 **** 0.06
33123 H 311.3297268536772 48.910173445542426 251.45405100001005 H 0.0 **** 0.06
33124 H 309.78028856366626 49.72286974479741 251.1249598533362 H 0.0 **** 0.06
33125 H 311.28299010889634 50.672891688772665 251.20907070867256 H 0.0 **** 0.06
33126 C 73.5658129682522 8.812717252105287 153.84091977073626 C 0.0 **** -0.24
33127 H 74.5082297051971 8.27343391020888 153.74356206634093 H 0.0 **** 0.06
33128 H 73.50478820656176 9.579527931387602 153.0691965646356 H 0.0 **** 0.06
33129 H 73.51717203682699 9.281163189492233 154.8244439535057 H 0.0 **** 0.06
33130 H 72.734949560839 8.115269899140657 153.72935121328118 H 0.0 **** 0.06
33131 C 305.5152954756559 59.268759958824546 236.61890563330007 C 0.0 **** -0.24
33132 H 305.1936481675824 58.28768192445858 236.26710418789685 H 0.0 **** 0.06
33133 H 306.5649405006839 59.417922549236096 236.3679889382248 H 0.0 **** 0.06
33134 H 305.3877212827038 59.325692477908206 237.7000507969139 H 0.0 **** 0.06
33135 H 304.91348498871406 60.0409010012653 236.14048772546306 H 0.0 **** 0.06
33136 C 295.4025169355202 255.75843704631052 13.040927355436793 C 0.0 **** -0.24
33137 H 294.6229195116424 255.0560270403289 12.744874331031667 H 0.0 **** 0.06
33138 H 295.1188856072693 256.76562828837314 12.734035801601635 H 0.0 **** 0.06
33139 H 296.3410962645477 255.4820437641999 12.560625423032462 H 0.0 **** 0.06
33140 H 295.5247267298659 255.72878834042766 14.12349655361838 H 0.0 **** 0.06
33141 C 248.8768049395209 295.7756529857882 90.78525549263642 C 0.0 **** -0.24
33142 H 248.25807169177358 295.93625567875006 91.66867968146596 H 0.0 **** 0.06
33143 H 249.45600474596569 294.86056297910665 90.90912725816446 H 0.0 **** 0.06
33144 H 249.5530008209748 296.6203458951169 90.65763745330878 H 0.0 **** 0.06
33145 H 248.2378257516667 295.68535672636665 89.9063678226141 H 0.0 **** 0.06
33146 C 125.1301612008223 116.08046390954786 54.259286082929606 C 0.0 **** -0.24
33147 H 125.6363273785862 116.86295324647719 54.82508515535912 H 0.0 **** 0.06
33148 H 124.16366086057062 115.86875167418239 54.7166331848897 H 0.0 **** 0.06
33149 H 125.73992101142346 115.17740286765763 54.262760920537346 H 0.0 **** 0.06
33150 H 124.98115234456478 116.41479687735381 53.23187273675342 H 0.0 **** 0.06
33151 C 72.70767030175426 75.54060236386925 203.35654177786023 C 0.0 **** -0.24
33152 H 73.38365457269089 76.08415765970756 204.01618126514245 H 0.0 **** 0.06
33153 H 73.22620756662505 75.29388777206094 202.42940081196548 H 0.0 **** 0.06
33154 H 71.84025242842532 76.16097140560211 203.13412813418648 H 0.0 **** 0.06
33155 H 72.38282634036077 74.62246912100011 203.84665921455263 H 0.0 **** 0.06
33156 C 25.653581223731493 241.20969316430677 46.31638686627704 C 0.0 **** -0.24
33157 H 24.913287603188422 240.4727895823366 46.62882537030907 H 0.0 **** 0.06
33158 H 26.65401341219882 240.83097274572793 46.525120260094525 H 0.0 **** 0.06
33159 H 25.495027674040387 242.13880782992723 46.865096321392144 H 0.0 **** 0.06
33160 H 25.55115227188466 241.39757775393053 45.24805356792842 H 0.0 **** 0.06
33161 C 148.79137933071016 13.88438196813506 226.26044616971868 C 0.0 **** -0.24
33162 H 149.8032006006601 13.801826664565851 225.86089930253613 H 0.0 **** 0.06
33163 H 148.0735210820259 13.835838165072147 225.44114073968316 H 0.0 **** 0.06
33164 H 148.68421338541938 14.83483355887418 226.7833539862135 H 0.0 **** 0.06
33165 H 148.60734886233112 13.06424237619531 226.95473947110497 H 0.0 **** 0.06
33166 C 296.21892048208724 66.57430821557799 116.94907965250087 C 0.0 **** -0.24
33167 H 295.25254924681644 66.31691445615252 116.51595330086184 H 0.0 **** 0.06
33168 H 296.7632573781956 65.66054205311013 117.18754577999522 H 0.0 **** 0.06
33169 H 296.0655877260116 67.15445040152838 117.85932712560651 H 0.0 **** 0.06
33170 H 296.79207558248703 67.1633889813902 116.2340884455472 H 0.0 **** 0.06
33171 C 191.82447965661697 162.24521627736516 197.73496545228483 C 0.0 **** -0.24
33172 H 191.3882631564228 161.831796121014 196.825586384166 H 0.0 **** 0.06
33173 H 192.25665088219165 161.44068063970673 198.32931365481255 H 0.0 **** 0.06
33174 H 191.04937308830688 162.7493390702353 198.31255905457158 H 0.0 **** 0.06
33175 H 192.60321201828054 162.9611246472101 197.4711710877146 H 0.0 **** 0.06
33176 C 297.1538995411529 264.1917305407121 37.004028789483755 C 0.0 **** -0.24
33177 H 297.5818767881344 263.5625576326405 37.78477988937118 H 0.0 **** 0.06
33178 H 297.89249683227774 264.34707122539885 36.21848079156064 H 0.0 **** 0.06
33179 H 296.86752413937296 265.15325183765145 37.429415991881115 H 0.0 **** 0.06
33180 H 296.274136960355 263.7026482204028 36.58540528703554 H 0.0 **** 0.06
33181 C 94.49235353658312 171.83201482851126 133.74867736521185 C 0.0 **** -0.24
33182 H 93.45078887061985 171.68208598868955 133.46536881030642 H 0.0 **** 0.06
33183 H 95.07714529577461 172.08341952865794 132.86316416342032 H 0.0 **** 0.06
33184 H 94.88315103845355 170.91810014205691 134.1954979177214 H 0.0 **** 0.06
33185 H 94.55810606679827 172.64612372714618 134.4710800643675 H 0.0 **** 0.06
33186 C 268.1361969665223 291.27078572634804 174.35259964524516 C 0.0 **** -0.24
33187 H 269.0423839801885 290.7248931769941 174.6165935357111 H 0.0 **** 0.06
33188 H 267.27541253328565 290.60839307612656 174.44065351234548 H 0.0 **** 0.06
33189 H 268.2159661202112 291.62940279784755 173.32629119800237 H 0.0 **** 0.06
33190 H 268.0146020648947 292.11901265882153 175.02509135057477 H 0.0 **** 0.06
33191 C 84.53920698375188 37.482488119797495 35.728651919039635 C 0.0 **** -0.24
33192 H 84.38248082024151 38.50132218158353 35.37191473004131 H 0.0 **** 0.06
33193 H 84.31227510905899 36.77919955941928 34.927055089212985 H 0.0 **** 0.06
33194 H 83.88460267185317 37.29050542677294 36.578274297747384 H 0.0 **** 0.06
33195 H 85.57800333592934 37.36098467259967 36.035248396322146 H 0.0 **** 0.06
33196 C 57.280901616153415 196.02751505985572 186.18132473838813 C 0.0 **** -0.24
33197 H 57.0022908820705 197.07803728827236 186.25962194789014 H 0.0 **** 0.06
33198 H 57.0493932807384 195.66504762898717 185.1790490235337 H 0.0 **** 0.06
33199 H 56.722038913391884 195.4481285566971 186.9156864379362 H 0.0 **** 0.06
33200 H 58.34894689771937 195.92053351648286 186.36864417684797 H 0.0 **** 0.06
33201 C 300.9265441666365 12.886365131002236 8.622045989804832 C 0.0 **** -0.24
33202 H 301.6053688529174 13.705540176049013 8.384635709249267 H 0.0 **** 0.06
33203 H 301.42223962824806 11.935480798945562 8.424469801814837 H 0.0 **** 0.06
33204 H 300.0318927815182 12.964460943809854 8.003591224240495 H 0.0 **** 0.06
33205 H 300.6464776001898 12.939172143412677 9.673411045791326 H 0.0 **** 0.06
33206 C 22.968435031183873 126.55971853123339 212.88277269029393 C 0.0 **** -0.24
33207 H 23.688212366651072 127.21179706615439 212.38787823482687 H 0.0 **** 0.06
33208 H 22.84123029966321 126.87777562275824 213.9172657981086 H 0.0 **** 0.06
33209 H 23.334295097685327 125.53265243272381 212.86038975030533 H 0.0 **** 0.06
33210 H 22.010691658972632 126.61562807040852 212.36433936654913 H 0.0 **** 0.06
33211 C 263.27262766105804 275.84370502921774 38.339169068651216 C 0.0 **** -0.24
33212 H 263.02353763255223 276.5781560871182 37.572847886681444 H 0.0 **** 0.06
33213 H 263.49973039154196 276.3576187560015 39.27358566974007 H 0.0 **** 0.06
33214 H 264.1414534768275 275.2666724296279 38.020461621853656 H 0.0 **** 0.06
33215 H 262.42600537706244 275.1732081246896 38.489275572993876 H 0.0 **** 0.06
33216 C 132.56184207749754 23.94997523831492 274.9844712372492 C 0.0 **** -0.24
33217 H 133.07377373332278 24.723698128284752 275.55625635182184 H 0.0 **** 0.06
33218 H 132.11784244721073 24.3917201102563 274.0912712846818 H 0.0 **** 0.06
33219 H 131.77773406528294 23.504857720009568 275.59769906936094 H 0.0 **** 0.06
33220 H 133.27636410269403 23.180745458732133 274.69256342853356 H 0.0 **** 0.06
33221 C 244.68553047803803 47.21536303952476 164.3321767967783 C 0.0 **** -0.24
33222 H 243.60779552198426 47.0568217877173 164.29349364663216 H 0.0 **** 0.06
33223 H 245.17889171685783 46.283558789399905 164.60711656038285 H 0.0 **** 0.06
33224 H 244.91362004286609 47.98111906945752 165.07249307760208 H 0.0 **** 0.06
33225 H 245.03950458389494 47.53881362929735 163.35351424181857 H 0.0 **** 0.06
33226 C 42.135418015409414 177.54312695305975 81.87916258132498 C 0.0 **** -0.24
33227 H 41.111222345456554 177.2951797923738 82.15877622103542 H 0.0 **** 0.06
33228 H 42.3633579056966 178.55896490414125 82.2030931552224 H 0.0 **** 0.06
33229 H 42.24329907955041 177.47294927127854 80.79686266070544 H 0.0 **** 0.06
33230 H 42.8216211387321 176.84564287718445 82.35971600003111 H 0.0 **** 0.06
33231 C 307.46851323243175 27.53299245539418 177.62030690748776 C 0.0 **** -0.24
33232 H 306.68816709215776 28.00389192290629 177.02152819390443 H 0.0 **** 0.06
33233 H 308.42303399781 28.0198356106892 177.41895099597122 H 0.0 **** 0.06
33234 H 307.537240251164 26.477101698485768 177.36040374830765 H 0.0 **** 0.06
33235 H 307.2248391048147 27.632861032496436 178.67727167969048 H 0.0 **** 0.06
33236 C 194.95630470987936 19.066259896109784 116.36762454745391 C 0.0 **** -0.24
33237 H 194.47732508450628 18.621883639242867 117.24088259460589 H 0.0 **** 0.06
33238 H 195.49888128999987 18.29605633494174 115.81987599484171 H 0.0 **** 0.06
33239 H 195.65182626404055 19.84146594862159 116.69110514862629 H 0.0 **** 0.06
33240 H 194.19645211960142 19.506224327240147 115.72130133657367 H 0.0 **** 0.06
33241 C 88.64083441768958 108.58241846777514 199.70709905973212 C 0.0 **** -0.24
33242 H 88.98324264349591 109.61406727426908 199.78214366461634 H 0.0 **** 0.06
33243 H 88.75858831171237 108.09007116245317 200.6721894696861 H 0.0 **** 0.06
33244 H 89.23058722526264 108.05729189218115 198.95594857273608 H 0.0 **** 0.06
33245 H 87.58879341473235 108.56944619438966 199.41793161809778 H 0.0 **** 0.06
33246 C 80.61589827835857 41.84963010539411 147.06014765961083 C 0.0 **** -0.24
33247 H 80.26980407969884 42.802081538118614 146.65856401402706 H 0.0 **** 0.06
33248 H 81.23169599845181 41.343848984674764 146.31524633467941 H 0.0 **** 0.06
33249 H 79.75623206118851 41.22495987322907 147.30543209022682 H 0.0 **** 0.06
33250 H 81.20465860024817 42.02685368399864 147.95936033182335 H 0.0 **** 0.06
33251 C 97.61815085257277 155.93632175726026 257.74574494098493 C 0.0 **** -0.24
33252 H 97.3769304875967 156.07391173790012 256.6921942406773 H 0.0 **** 0.06
33253 H 97.63868773316293 154.871273480924 257.9779576842103 H 0.0 **** 0.06
33254 H 96.86336717516747 156.42876606138185 258.3583774205124 H 0.0 **** 0.06
33255 H 98.59596805746105 156.371663460241 257.95384220008077 H 0.0 **** 0.06
33256 C 104.40485558230662 137.2555638138899 262.1173115829426 C 0.0 **** -0.24
33257 H 103.70496363557376 136.96852518517153 261.3320317334151 H 0.0 **** 0.06
33258 H 104.55092923117238 138.33545382960293 262.09498687594044 H 0.0 **** 0.06
33259 H 105.35917601870693 136.7564499288068 261.95187827217956 H 0.0 **** 0.06
33260 H 104.00369243311366 136.96228379680804 263.0874591538726 H 0.0 **** 0.06
33261 C 35.91906591108784 139.53126182390886 57.18036174761079 C 0.0 **** -0.24
33262 H 35.91764449204709 139.55000775830564 56.09073937388345 H 0.0 **** 0.06
33263 H 36.93652835085604 139.6736280226952 57.54534996906608 H 0.0 **** 0.06
33264 H 35.539368932189916 138.5695242635799 57.526810046583364 H 0.0 **** 0.06
33265 H 35.281593280193135 140.33083738531874 57.55692769623005 H 0.0 **** 0.06
33266 C 150.61937415334722 198.32322687375887 148.4033133530196 C 0.0 **** -0.24
33267 H 150.8380288888344 199.26971947713713 147.9093819749955 H 0.0 **** 0.06
33268 H 150.70650995332494 198.44706975423026 149.48253373885672 H 0.0 **** 0.06
33269 H 151.32760546176718 197.56620760438057 148.06628428868396 H 0.0 **** 0.06
33270 H 149.60590656957214 198.0091729807 148.1535875856985 H 0.0 **** 0.06
33271 C 271.9027676661395 186.6998207633788 118.98333146593995 C 0.0 **** -0.24
33272 H 271.77469669040147 187.7737563668316 119.11899463315865 H 0.0 **** 0.06
33273 H 272.6945025772934 186.51819962227142 118.25495316334295 H 0.0 **** 0.06
33274 H 270.96992227203873 186.265762984788 118.62230422417599 H 0.0 **** 0.06
33275 H 272.1724600235296 186.2424259831701 119.93507481149047 H 0.0 **** 0.06
33276 C 260.16693188261786 113.22988625708763 32.73342043042982 C 0.0 **** -0.24
33277 H 259.3810544951186 113.58549333281528 32.06696811407616 H 0.0 **** 0.06
33278 H 261.13532518801395 113.34580472107376 32.247763492733384 H 0.0 **** 0.06
33279 H 259.9988628135926 112.17740052459035 32.96386765924174 H 0.0 **** 0.06
33280 H 260.151527740657 113.81026428150847 33.65640332032697 H 0.0 **** 0.06
33281 C 277.47150159914565 3.9714172483632666 256.2236210175798 C 0.0 **** -0.24
33282 H 277.7763977615597 5.011866539857095 256.12165562163983 H 0.0 **** 0.06
33283 H 276.4011200482877 3.9248394522412298 256.42785422047336 H 0.0 **** 0.06
33284 H 278.018387092259 3.5103205765265812 257.0461880163835 H 0.0 **** 0.06
33285 H 277.6888586996541 3.4365353468484017 255.29891155309465 H 0.0 **** 0.06
33286 C 32.48298306519976 280.7326189395184 95.95694498400013 C 0.0 **** -0.24
33287 H 32.479586568221634 280.7108613282858 94.86690396519472 H 0.0 **** 0.06
33288 H 32.449091488919635 281.76673826278056 96.29919625775264 H 0.0 **** 0.06
33289 H 33.39181319688123 280.25695083066415 96.32599104260427 H 0.0 **** 0.06
33290 H 31.612879477656207 280.1958848372118 96.33429972143603 H 0.0 **** 0.06
33291 C 84.3830496736154 168.33609895906494 247.5959064181405 C 0.0 **** -0.24
33292 H 85.04489069479888 167.50556569795515 247.84108250595426 H 0.0 **** 0.06
33293 H 84.30531126040165 169.0034187372159 248.45514585491907 H 0.0 **** 0.06
33294 H 83.39477188440742 167.95078367565594 247.34494328567808 H 0.0 **** 0.06
33295 H 84.7871958306824 168.88385954684577 246.74477977025128 H 0.0 **** 0.06
33296 C 74.19592189996487 296.4826109662607 310.7452403494663 C 0.0 **** -0.24
33297 H 74.52493143507834 295.9447560711175 311.6336744673829 H 0.0 **** 0.06
33298 H 73.21833117176087 296.9279604533927 310.9309674455964 H 0.0 **** 0.06
33299 H 74.12688893076663 295.788814460054 309.9066074064973 H 0.0 **** 0.06
33300 H 74.91505033573671 297.2668230229805 310.5085547074541 H 0.0 **** 0.06
33301 C 102.11330564683834 307.21672430829636 11.328735570602461 C 0.0 **** -0.24
33302 H 101.94708003598919 306.1453393548994 11.434649080709548 H 0.0 **** 0.06
33303 H 102.66464821952619 307.409323226747 10.407682705676194 H 0.0 **** 0.06
33304 H 102.6883519932669 307.58155063620035 12.178948951631227 H 0.0 **** 0.06
33305 H 101.15320374519374 307.7310116491741 11.290680114228792 H 0.0 **** 0.06
33306 C 243.9586617084408 196.42885420461914 310.3343719457276 C 0.0 **** -0.24
33307 H 244.3351146484628 196.83811133626858 311.2715091454352 H 0.0 **** 0.06
33308 H 244.06191517598603 195.34356409628805 310.34454320265604 H 0.0 **** 0.06
33309 H 244.5299377466963 196.8400745465653 309.5020613853822 H 0.0 **** 0.06
33310 H 242.907279819991 196.69326452817114 310.2185502801717 H 0.0 **** 0.06
33311 C 16.75502359375109 216.78333293150285 67.13249206235201 C 0.0 **** -0.24
33312 H 17.356567859419812 217.29291889719465 66.37993908155772 H 0.0 **** 0.06
33313 H 15.898979257289568 217.40500789207522 67.39597392151097 H 0.0 **** 0.06
33314 H 17.36115680664183 216.6041262242522 68.02091923295089 H 0.0 **** 0.06
33315 H 16.40472023096035 215.83116276913833 66.73462539653116 H 0.0 **** 0.06
33316 C 209.66765836789324 261.86741464518457 311.5052587990735 C 0.0 **** -0.24
33317 H 210.06389006581483 261.2163243098468 312.28459452104653 H 0.0 **** 0.06
33318 H 210.47172282130015 262.4838158052795 311.10287923225974 H 0.0 **** 0.06
33319 H 208.89419556700736 262.50917725391616 311.92770335365606 H 0.0 **** 0.06
33320 H 209.2409697609848 261.2604281622134 310.7072621897278 H 0.0 **** 0.06
33321 C 145.38780275956202 277.4592618249767 151.95502987860357 C 0.0 **** -0.24
33322 H 146.03643948136943 278.30532294829925 152.18037034362527 H 0.0 **** 0.06
33323 H 144.57094149083986 277.7894739478828 151.31188216635599 H 0.0 **** 0.06
33324 H 144.9801838384168 277.05646211352365 152.8814679775349 H 0.0 **** 0.06
33325 H 145.96271769210156 276.6868991021288 151.44396922141777 H 0.0 **** 0.06
33326 C 26.21122872645006 171.06507259815174 273.24596181805043 C 0.0 **** -0.24
33327 H 25.707059675326292 172.030982303737 273.2037319434463 H 0.0 **** 0.06
33328 H 26.9588723317963 171.0804507905147 274.0388829362933 H 0.0 **** 0.06
33329 H 26.697428094188723 170.8687067892967 272.2902275479196 H 0.0 **** 0.06
33330 H 25.480324611683557 170.2828706506824 273.4489830844811 H 0.0 **** 0.06
33331 C 273.21987250875264 9.912853056485716 45.589693239476645 C 0.0 **** -0.24
33332 H 272.8611449676298 9.240106571864033 44.81128135330107 H 0.0 **** 0.06
33333 H 274.2672004228946 10.15472886285464 45.40517307648642 H 0.0 **** 0.06
33334 H 273.12479905225473 9.429004504934454 46.56122088297067 H 0.0 **** 0.06
33335 H 272.6282388292848 10.82794805225437 45.57958950708533 H 0.0 **** 0.06
33336 C 180.64881768852115 264.5270258616527 49.3580572224337 C 0.0 **** -0.24
33337 H 181.20231375362636 264.3266179145817 48.440010319416785 H 0.0 **** 0.06
33338 H 179.65193772056273 264.892199889282 49.10796200851445 H 0.0 **** 0.06
33339 H 181.1760155346825 265.2807484838903 49.94286145407992 H 0.0 **** 0.06
33340 H 180.56397962244029 263.6087249346698 49.939177915849086 H 0.0 **** 0.06
33341 C 229.4530810563536 292.22666645864524 93.04493140411137 C 0.0 **** -0.24
33342 H 229.20249189184753 292.7146215807622 92.10315530642171 H 0.0 **** 0.06
33343 H 230.25550398609928 292.77486249676485 93.53672596210092 H 0.0 **** 0.06
33344 H 229.77757305736523 291.2040353659763 92.84867405721835 H 0.0 **** 0.06
33345 H 228.57379050564728 292.21015595621077 93.69004448521548 H 0.0 **** 0.06
33346 C 177.6892013955175 112.24759614034338 95.18795889541184 C 0.0 **** -0.24
33347 H 177.2789935192206 112.56222784389266 94.22837422529435 H 0.0 **** 0.06
33348 H 177.22406236190983 111.30827766815003 95.49043673996573 H 0.0 **** 0.06
33349 H 177.4878064931808 113.01132510188009 95.93804789628948 H 0.0 **** 0.06
33350 H 178.76578251820325 112.10533852935421 95.09335335203431 H 0.0 **** 0.06
33351 C 14.800649587137329 215.97835570161493 145.77624175076784 C 0.0 **** -0.24
33352 H 15.27250741736637 215.43941606170026 146.59788498415804 H 0.0 **** 0.06
33353 H 14.96957256311029 215.43909452317087 144.84451177021953 H 0.0 **** 0.06
33354 H 15.231367348691947 216.97681070051084 145.70180268567256 H 0.0 **** 0.06
33355 H 13.72915975881655 216.0577471189838 145.96213662539532 H 0.0 **** 0.06
33356 C 165.66147609293813 98.90783085977111 178.31720800756761 C 0.0 **** -0.24
33357 H 164.80058010615636 98.25159812810764 178.44426331436352 H 0.0 **** 0.06
33358 H 166.37739833999768 98.72628622968557 179.1189949085442 H 0.0 **** 0.06
33359 H 165.33354225559265 99.94662719780573 178.34976433615998 H 0.0 **** 0.06
33360 H 166.1329724658189 98.70540134509517 177.35594695649024 H 0.0 **** 0.06
33361 C 197.77405393664378 43.3279642682823 262.49574232748824 C 0.0 **** -0.24
33362 H 196.733992408051 43.017501472490494 262.59807619917837 H 0.0 **** 0.06
33363 H 197.87947806367265 44.35789916198746 262.83841742657046 H 0.0 **** 0.06
33364 H 198.0717928361097 43.26147444183118 261.4495430164521 H 0.0 **** 0.06
33365 H 198.4093052026014 42.677481525261555 263.0967351552328 H 0.0 **** 0.06
33366 C 178.52155581238685 221.27214433926673 124.43958065420767 C 0.0 **** -0.24
33367 H 179.22927457005534 221.24983998095996 123.61075375638532 H 0.0 **** 0.06
33368 H 178.9124435549208 220.68150218816095 125.26719890271653 H 0.0 **** 0.06
33369 H 177.5673005037545 220.8571084569951 124.11383170758856 H 0.0 **** 0.06
33370 H 178.37680562570824 222.30279580707315 124.76461032766011 H 0.0 **** 0.06
33371 C 107.79457146579827 306.4871507242009 249.2446033074846 C 0.0 **** -0.24
33372 H 108.31089967865469 307.27969218432264 249.78613314040942 H 0.0 **** 0.06
33373 H 108.49340623689224 305.99423155313275 248.56854265578784 H 0.0 **** 0.06
33374 H 106.97266862602538 306.9154654911939 248.67081891177642 H 0.0 **** 0.06
33375 H 107.40219023957522 305.7591008204266 249.95520211466862 H 0.0 **** 0.06
33376 C 172.78747810447385 47.03116813054214 51.71173579417328 C 0.0 **** -0.24
33377 H 173.61055709404303 46.554678362389495 51.18016188296397 H 0.0 **** 0.06
33378 H 172.09538281465746 46.266960824104586 52.068075044082605 H 0.0 **** 0.06
33379 H 172.26451203432356 47.7101264626786 51.0386322210648 H 0.0 **** 0.06
33380 H 173.1795599271622 47.590823354852034 52.561358196952284 H 0.0 **** 0.06
33381 C 164.63964884455254 133.74829627447807 94.10355539601963 C 0.0 **** -0.24
33382 H 163.8870383197231 133.71341037818362 94.8912067921274 H 0.0 **** 0.06
33383 H 165.46413871414268 133.08266401671935 94.3593688107614 H 0.0 **** 0.06
33384 H 165.01226725249774 134.76699982159442 94.00266957374231 H 0.0 **** 0.06
33385 H 164.19385354799 133.42896907028816 93.16108892766735 H 0.0 **** 0.06
33386 C 68.43864669971637 296.9452966835763 30.655504818290694 C 0.0 **** -0.24
33387 H 67.84632670647468 296.66046247763364 29.786705160863193 H 0.0 **** 0.06
33388 H 69.49563277610795 296.9564023226211 30.386622955826624 H 0.0 **** 0.06
33389 H 68.27555072466771 296.2261906946102 31.45780689752567 H 0.0 **** 0.06
33390 H 68.13795700167015 297.93799287321224 30.99043067607178 H 0.0 **** 0.06
33391 C 82.77611853563482 76.83732940600518 32.099840545321825 C 0.0 **** -0.24
33392 H 81.79249061281638 76.37037972297577 32.05087675987079 H 0.0 **** 0.06
33393 H 82.72927069973457 77.83114033412326 31.65389719449297 H 0.0 **** 0.06
33394 H 83.49551050213881 76.2261753156726 31.55451841325018 H 0.0 **** 0.06
33395 H 83.08615311103358 76.92030322506142 33.14153928177569 H 0.0 **** 0.06
33396 C 212.4715648468274 287.33298720921044 291.147512840938 C 0.0 **** -0.24
33397 H 211.66326000401008 286.71388027770246 290.7600851285971 H 0.0 **** 0.06
33398 H 212.06291198693899 288.2749992498444 291.51495604904284 H 0.0 **** 0.06
33399 H 213.18883563096261 287.53322120881245 290.35254409277 H 0.0 **** 0.06
33400 H 212.96981469096716 286.81017432254095 291.96337626352283 H 0.0 **** 0.06
33401 C 125.82260393727651 312.1317747245713 257.05410064719973 C 0.0 **** -0.24
33402 H 126.1490667882556 312.686765272662 257.93370444964177 H 0.0 **** 0.06
33403 H 124.73347904967542 312.1162472700251 257.0189264327353 H 0.0 **** 0.06
33404 H 126.19859378175249 311.10956176643776 257.10963136599366 H 0.0 **** 0.06
33405 H 126.20952311048217 312.61320298674684 256.15662879445426 H 0.0 **** 0.06
33406 C 244.69469081778544 229.7570201632659 48.59655682903633 C 0.0 **** -0.24
33407 H 243.73146256145148 230.09009306244442 48.21108294337864 H 0.0 **** 0.06
33408 H 244.97905592306626 228.82594539469426 48.1050747666535 H 0.0 **** 0.06
33409 H 244.61896678083104 229.59275895539628 49.67128166552598 H 0.0 **** 0.06
33410 H 245.44950925659265 230.51806539109327 48.39667526625411 H 0.0 **** 0.06
33411 C 102.06508965716907 310.9869725456628 251.40991179621008 C 0.0 **** -0.24
33412 H 101.13717943890663 310.6796482407105 251.8909416734063 H 0.0 **** 0.06
33413 H 102.12038526735842 310.54869029529334 250.41356576529066 H 0.0 **** 0.06
33414 H 102.91242156899466 310.6450690327372 252.00530912126962 H 0.0 **** 0.06
33415 H 102.09118850668037 312.0737435072118 251.33177681028445 H 0.0 **** 0.06
33416 C 221.07240407979253 44.24705342216842 48.981728344336716 C 0.0 **** -0.24
33417 H 221.06739090246953 44.44999619923587 47.910635701846246 H 0.0 **** 0.06
33418 H 220.6000818252291 43.28263324845261 49.1715882175165 H 0.0 **** 0.06
33419 H 220.52021883471684 45.03069142979524 49.50219187434237 H 0.0 **** 0.06
33420 H 222.10015648950304 44.22582513457448 49.34243416404473 H 0.0 **** 0.06
33421 C 9.943058880077913 244.83956762655623 257.66647244308444 C 0.0 **** -0.24
33422 H 9.179942902806232 245.59817970852885 257.4926073686697 H 0.0 **** 0.06
33423 H 10.604984798490449 245.1678591814166 258.4674756146717 H 0.0 **** 0.06
33424 H 10.52184449155807 244.69163095311063 256.75444157237445 H 0.0 **** 0.06
33425 H 9.464956723706251 243.90207915164092 257.9506185989243 H 0.0 **** 0.06
33426 C 309.7063922931845 112.99143206603486 148.0980618258627 C 0.0 **** -0.24
33427 H 309.1641852978297 113.45280847983611 148.9241397484197 H 0.0 **** 0.06
33428 H 309.3781305852009 113.43291977327809 147.15597201336445 H 0.0 **** 0.06
33429 H 309.50664414024743 111.92027002624437 148.08606570859092 H 0.0 **** 0.06
33430 H 310.7753548772662 113.1602043773687 148.22651901226357 H 0.0 **** 0.06
33431 C 108.05822184644413 203.63016651055176 40.71127315955232 C 0.0 **** -0.24
33432 H 108.57827323216534 203.4177939993475 39.77688628837393 H 0.0 **** 0.06
33433 H 108.78206301742222 203.93390584002145 41.46763598895933 H 0.0 **** 0.06
33434 H 107.53534629416544 202.73513777275986 41.047326819206745 H 0.0 **** 0.06
33435 H 107.33969667066722 204.43372858065118 40.551909054454995 H 0.0 **** 0.06
33436 C 24.703596928746407 151.1000078488638 212.09830440052855 C 0.0 **** -0.24
33437 H 25.189839625406705 151.99130426214094 211.70201903292283 H 0.0 **** 0.06
33438 H 25.30504027439983 150.68953455651132 212.90992619176063 H 0.0 **** 0.06
33439 H 24.604976507101526 150.35740085999976 211.3067848362546 H 0.0 **** 0.06
33440 H 23.715400673067307 151.36295450852873 212.4758630912223 H 0.0 **** 0.06
33441 C 311.86344585924957 26.97832717586374 26.384333103273008 C 0.0 **** -0.24
33442 H 312.06212874674543 27.614565104184635 27.247372942021315 H 0.0 **** 0.06
33443 H 312.6399113760465 27.13223513852256 25.634289774577923 H 0.0 **** 0.06
33444 H 310.8923578747278 27.23489315284752 25.961034892387488 H 0.0 **** 0.06
33445 H 311.8597780181737 25.934350889487632 26.696171853348773 H 0.0 **** 0.06
33446 C 149.07450194085504 272.45098753533085 230.29210365195183 C 0.0 **** -0.24
33447 H 149.68653006250224 273.1457777409472 230.86763167075176 H 0.0 **** 0.06
33448 H 149.57065586440694 271.48085654048555 230.2488313531091 H 0.0 **** 0.06
33449 H 148.93939458409454 272.83628157515034 229.28175873447674 H 0.0 **** 0.06
33450 H 148.1021470941699 272.34118868310617 230.7723042498367 H 0.0 **** 0.06
33451 C 12.644418141378821 41.354153034575575 303.6687462077613 C 0.0 **** -0.24
33452 H 13.379728861322988 42.09613958648217 303.98058182713436 H 0.0 **** 0.06
33453 H 11.837077301039656 41.84841107208766 303.1275372704306 H 0.0 **** 0.06
33454 H 12.240094802274726 40.85153806384645 304.54714826646574 H 0.0 **** 0.06
33455 H 13.122767225466944 40.62119875313863 303.0178302897259 H 0.0 **** 0.06
33456 C 208.03594206193085 106.89758815751912 167.86932388923077 C 0.0 **** -0.24
33457 H 208.25751166449612 105.85445546063573 168.0952806077231 H 0.0 **** 0.06
33458 H 208.2784704642082 107.51658604577389 168.73293719218134 H 0.0 **** 0.06
33459 H 206.97671251218378 107.0005199477373 167.6337646457019 H 0.0 **** 0.06
33460 H 208.63056956155452 107.21832796914646 167.01372207664122 H 0.0 **** 0.06
33461 C 185.12194565679613 23.650202744333143 216.4250594147107 C 0.0 **** -0.24
33462 H 184.3942792466931 24.457524655796846 216.50507988005558 H 0.0 **** 0.06
33463 H 186.12674290388418 24.052315826332887 216.56052128570923 H 0.0 **** 0.06
33464 H 185.04441604802116 23.187115543420475 215.44128568319724 H 0.0 **** 0.06
33465 H 184.92193096086322 22.90413395136423 217.19467414380733 H 0.0 **** 0.06
33466 C 32.41270606615967 52.65568286706173 163.84319633579543 C 0.0 **** -0.24
33467 H 32.172235623207655 52.82929890237409 164.89120720413263 H 0.0 **** 0.06
33468 H 32.57709682532166 51.591033661593485 163.6790954688953 H 0.0 **** 0.06
33469 H 33.3155394650947 53.20786933711764 163.58123773521487 H 0.0 **** 0.06
33470 H 31.585983325665154 52.99600579178656 163.21956570179742 H 0.0 **** 0.06
33471 C 11.91732338207818 37.019948487143665 163.8456831435323 C 0.0 **** -0.24
33472 H 11.232045436457312 36.21008518483529 164.0987482046785 H 0.0 **** 0.06
33473 H 12.338281657885162 36.842805776733485 162.85546450873795 H 0.0 **** 0.06
33474 H 12.720626717856618 37.0580934444846 164.58120340924353 H 0.0 **** 0.06
33475 H 11.378149545335475 37.966453498845226 163.84795904021053 H 0.0 **** 0.06
33476 C 22.055789862124954 113.98067152398633 217.83066218847372 C 0.0 **** -0.24
33477 H 21.02230931706862 114.3252519530628 217.8666155035413 H 0.0 **** 0.06
33478 H 22.657436925588343 114.5672976917792 218.52558729552197 H 0.0 **** 0.06
33479 H 22.444221593774074 114.10363449997377 216.8200800579167 H 0.0 **** 0.06
33480 H 22.09775404298577 112.92884043222307 218.11157624473003 H 0.0 **** 0.06
33481 C 219.67527056509635 205.19489178889745 70.931889161915 C 0.0 **** -0.24
33482 H 220.19708553945708 205.43157554459526 71.85889740365047 H 0.0 **** 0.06
33483 H 218.6010830860281 205.17491060161706 71.11414271927725 H 0.0 **** 0.06
33484 H 220.00187434746204 204.21973859793252 70.57081081467365 H 0.0 **** 0.06
33485 H 219.90241868789394 205.95506120137838 70.1833275063274 H 0.0 **** 0.06
33486 C 227.17083294889756 153.36764633879187 178.94931257576758 C 0.0 **** -0.24
33487 H 226.13852601943972 153.71779873009757 178.91690792093652 H 0.0 **** 0.06
33488 H 227.83187158868247 154.20599633703932 179.16894988322002 H 0.0 **** 0.06
33489 H 227.43749846203733 152.93768856622017 177.9831975859882 H 0.0 **** 0.06
33490 H 227.272926227255 152.60989937936313 179.7255366758452 H 0.0 **** 0.06
33491 C 277.10400067190034 250.52863822069264 155.98426515780386 C 0.0 **** -0.24
33492 H 278.07348120583504 250.66856491696802 155.50666452803586 H 0.0 **** 0.06
33493 H 276.3639243609887 251.1647593886884 155.4982556252898 H 0.0 **** 0.06
33494 H 277.17738123906696 250.7966667245904 157.03874482480808 H 0.0 **** 0.06
33495 H 276.8021930073043 249.48578498817793 155.89464031478582 H 0.0 **** 0.06
33496 C 184.00374477486605 279.0606368491292 119.7511446396816 C 0.0 **** -0.24
33497 H 184.3260949281405 280.0733706916079 119.99169170320766 H 0.0 **** 0.06
33498 H 183.73544052134037 278.53712843400183 120.66922204405884 H 0.0 **** 0.06
33499 H 184.8151567729459 278.52926789206504 119.25339073203432 H 0.0 **** 0.06
33500 H 183.13828687703744 279.1027803788421 119.09027407942557 H 0.0 **** 0.06
33501 C 211.27741399787635 27.855589554584668 274.1674860803496 C 0.0 **** -0.24
33502 H 210.42904340143417 27.32095113287096 274.59486815720715 H 0.0 **** 0.06
33503 H 211.80535077453504 27.204020703277877 273.4710378463178 H 0.0 **** 0.06
33504 H 211.95477117720043 28.158148635305025 274.9661879052064 H 0.0 **** 0.06
33505 H 210.9205291076788 28.740628452095024 273.63960097875895 H 0.0 **** 0.06
33506 C 257.9910342297337 269.23088313503854 27.650378070356396 C 0.0 **** -0.24
33507 H 257.928160490507 269.41706714394763 28.721695366837736 H 0.0 **** 0.06
33508 H 258.33904321274775 270.1320899986634 27.144011312172807 H 0.0 **** 0.06
33509 H 257.0061316295747 268.95782742465497 27.270238883145936 H 0.0 **** 0.06
33510 H 258.690496860941 268.41635833354263 27.4631436620038 H 0.0 **** 0.06
33511 C 260.83214621912157 238.75013964317452 28.682972805836016 C 0.0 **** -0.24
33512 H 259.97849558008807 238.85390594110967 29.353213430212662 H 0.0 **** 0.06
33513 H 260.56262125355687 238.09853690790317 27.850902180900817 H 0.0 **** 0.06
33514 H 261.67117349996107 238.31595447670372 29.22728504722258 H 0.0 **** 0.06
33515 H 261.11468339393156 239.7306232035472 28.300293984301845 H 0.0 **** 0.06
33516 C 271.1504780433237 147.2968935699935 130.71438164198145 C 0.0 **** -0.24
33517 H 271.300731390255 146.39893416422314 130.11552257280874 H 0.0 **** 0.06
33518 H 271.6994285598693 148.1264306780378 130.26919306984368 H 0.0 **** 0.06
33519 H 271.51343667948447 147.12295779539198 131.7273207933637 H 0.0 **** 0.06
33520 H 270.08831554368606 147.53925164232098 130.74549013190966 H 0.0 **** 0.06
33521 C 245.2921642273808 79.58891485920344 139.89853018915912 C 0.0 **** -0.24
33522 H 245.74270239446716 80.44430226320546 140.4012498882445 H 0.0 **** 0.06
33523 H 244.26842316662695 79.83254193606712 139.61384889468786 H 0.0 **** 0.06
33524 H 245.2890003281434 78.73197460975564 140.5712401884335 H 0.0 **** 0.06
33525 H 245.8700050447511 79.34712475482041 139.00612451455697 H 0.0 **** 0.06
33526 C 311.3829926374857 203.58805850246193 40.37766819213448 C 0.0 **** -0.24
33527 H 311.4424620788193 204.6396487136367 40.65879941532066 H 0.0 **** 0.06
33528 H 310.89783076812955 203.49955076408366 39.40521269483057 H 0.0 **** 0.06
33529 H 310.8041900967079 203.04412318596172 41.12385472260618 H 0.0 **** 0.06
33530 H 312.38806582106804 203.17058750941067 40.32144352359728 H 0.0 **** 0.06
33531 C 152.06917265874603 273.0539686203093 253.12417059958995 C 0.0 **** -0.24
33532 H 152.9905664416762 272.9849827825248 253.70190652387618 H 0.0 **** 0.06
33533 H 151.67906020216077 272.0529286046184 252.94056910835175 H 0.0 **** 0.06
33534 H 152.273419793727 273.54387180538845 252.1720254804286 H 0.0 **** 0.06
33535 H 151.33345777457993 273.63464450869515 253.68136937519662 H 0.0 **** 0.06
33536 C 138.43102697680544 65.49877094624964 121.90471663405333 C 0.0 **** -0.24
33537 H 137.8249974149627 65.62890982399063 121.00820595822188 H 0.0 **** 0.06
33538 H 138.34687052394767 64.46819965213814 122.25272217838477 H 0.0 **** 0.06
33539 H 138.07861472777978 66.17451801693633 122.68373579384402 H 0.0 **** 0.06
33540 H 139.4721687826477 65.72065192927982 121.6740829162903 H 0.0 **** 0.06
33541 C 279.9444569613832 163.97894331519205 42.4427927896333 C 0.0 **** -0.24
33542 H 279.74157860250943 163.05394069317515 41.903651001393825 H 0.0 **** 0.06
33543 H 280.84853139887537 164.4408157332728 42.04556787543419 H 0.0 **** 0.06
33544 H 280.08361876138537 163.75892148128838 43.50146353071602 H 0.0 **** 0.06
33545 H 279.1041165747262 164.6630057021805 42.32196217284593 H 0.0 **** 0.06
33546 C 160.19780817553442 251.32838213150978 104.09256761896259 C 0.0 **** -0.24
33547 H 160.44870594590128 250.9149398235128 105.07008443348417 H 0.0 **** 0.06
33548 H 159.33427216840687 251.98671382859456 104.18796306627098 H 0.0 **** 0.06
33549 H 159.96191086298325 250.51593431811688 103.40582141041884 H 0.0 **** 0.06
33550 H 161.0464170625379 251.89363105291017 103.70934450314735 H 0.0 **** 0.06
33551 C 57.41424144245434 13.646420742432184 305.7680398184302 C 0.0 **** -0.24
33552 H 57.942233833115125 13.329211879775556 306.66715155866774 H 0.0 **** 0.06
33553 H 57.26053069568323 12.786693309960526 305.1157384319434 H 0.0 **** 0.06
33554 H 58.00672225820949 14.397036602241187 305.2454839254441 H 0.0 **** 0.06
33555 H 56.45015861516234 14.0713999325056 306.04364157946685 H 0.0 **** 0.06
33556 C 249.42350305929696 171.52175525081464 81.08420763630599 C 0.0 **** -0.24
33557 H 250.22550091607505 171.25076681235169 81.77106428456472 H 0.0 **** 0.06
33558 H 248.60615297024646 170.80692827567856 81.18106102507167 H 0.0 **** 0.06
33559 H 249.7998417468864 171.50690333608912 80.06154984364358 H 0.0 **** 0.06
33560 H 249.0619549250323 172.5216954202224 81.3242304573725 H 0.0 **** 0.06
33561 C 206.4159406104028 39.684308719843585 311.9538246301298 C 0.0 **** -0.24
33562 H 206.39668922465205 39.50494981757413 310.87902831613565 H 0.0 **** 0.06
33563 H 207.44832476855387 39.7879965019315 312.28640265047284 H 0.0 **** 0.06
33564 H 205.9494340562647 38.845583263463936 312.46982617111917 H 0.0 **** 0.06
33565 H 205.8677597843814 40.59929521910317 312.17854632144173 H 0.0 **** 0.06
33566 C 152.46893719278904 37.63125246198754 69.20705235488805 C 0.0 **** -0.24
33567 H 151.75183083239926 36.893037457524144 69.56692514874308 H 0.0 **** 0.06
33568 H 152.18860400890082 38.618178623769865 69.5733601506534 H 0.0 **** 0.06
33569 H 152.4705693689889 37.633792225808236 68.11702151317996 H 0.0 **** 0.06
33570 H 153.46481333964408 37.37684090110554 69.57097791253855 H 0.0 **** 0.06
33571 C 213.6351957966615 244.4636933116724 300.6762424425447 C 0.0 **** -0.24
33572 H 212.64608978076024 244.05180119644402 300.47574923810566 H 0.0 **** 0.06
33573 H 214.2743105105045 243.6853011649134 301.0935341871543 H 0.0 **** 0.06
33574 H 213.54861799105515 245.28508536396285 301.38830896681134 H 0.0 **** 0.06
33575 H 214.06984467063057 244.83206798701602 299.747589224183 H 0.0 **** 0.06
33576 C 61.91370543372193 134.72575467201187 7.476100790306873 C 0.0 **** -0.24
33577 H 61.722510372153124 135.3957532552773 6.63794466156304 H 0.0 **** 0.06
33578 H 61.522982741803446 135.16984748664004 8.39218141142453 H 0.0 **** 0.06
33579 H 62.98662108530408 134.5678826854178 7.576478983040545 H 0.0 **** 0.06
33580 H 61.420767664723684 133.77012172544224 7.296422246552595 H 0.0 **** 0.06
33581 C 205.97105538180875 123.62455754696049 140.1810134567387 C 0.0 **** -0.24
33582 H 206.13425687254028 123.0953126095389 141.1200472268744 H 0.0 **** 0.06
33583 H 204.90999815805446 123.59782134328137 139.92858306421255 H 0.0 **** 0.06
33584 H 206.5450946696697 123.14304047750639 139.38875619925813 H 0.0 **** 0.06
33585 H 206.29426092961035 124.65986092940048 140.28576758054334 H 0.0 **** 0.06
33586 C 237.478559392715 202.32076994124765 186.3972389411358 C 0.0 **** -0.24
33587 H 236.49402107677292 202.59441441598892 186.01615973447144 H 0.0 **** 0.06
33588 H 237.4626236321894 201.28116214396647 186.72684027061217 H 0.0 **** 0.06
33589 H 237.734815486647 202.9649674245839 187.23795635135718 H 0.0 **** 0.06
33590 H 238.21959295911157 202.44064436735727 185.6074682646173 H 0.0 **** 0.06
33591 C 273.903596303885 197.93979324565453 32.039624769562295 C 0.0 **** -0.24
33592 H 273.21814239615435 198.7347940462979 31.74889979711753 H 0.0 **** 0.06
33593 H 273.6617789700025 197.6019524180574 33.04707069850255 H 0.0 **** 0.06
33594 H 274.9264941817804 198.31539718949125 32.01688806201244 H 0.0 **** 0.06
33595 H 273.8082323378211 197.10607972618726 31.343397913583374 H 0.0 **** 0.06
33596 C 26.477982359448504 70.87131688069914 131.68491348216867 C 0.0 **** -0.24
33597 H 25.841722373636912 71.75622770518453 131.6629951261784 H 0.0 **** 0.06
33598 H 27.065852561545 70.8699562759223 132.60384554323724 H 0.0 **** 0.06
33599 H 27.147661538845654 70.88484578434233 130.8248849266604 H 0.0 **** 0.06
33600 H 25.8572827216893 69.97697780268737 131.64899808848378 H 0.0 **** 0.06
33601 C 29.4156145316407 163.22209101282772 171.35715513964055 C 0.0 **** -0.24
33602 H 29.01695227011652 163.81002032052487 172.18334814143122 H 0.0 **** 0.06
33603 H 29.19480892118827 162.16735651107462 171.52156427506674 H 0.0 **** 0.06
33604 H 30.495467946497058 163.3627520203567 171.29968829582106 H 0.0 **** 0.06
33605 H 28.956581745984806 163.54923614440008 170.42442993211063 H 0.0 **** 0.06
33606 C 293.8157905121967 206.3813294366745 259.37072017858793 C 0.0 **** -0.24
33607 H 293.956709077393 206.29377159145253 260.4486324837383 H 0.0 **** 0.06
33608 H 293.081674286418 207.16128031555695 259.16332357000726 H 0.0 **** 0.06
33609 H 293.45990500825565 205.4321631817507 258.97283543579476 H 0.0 **** 0.06
33610 H 294.7646065330128 206.64078799730208 258.9006810677424 H 0.0 **** 0.06
33611 C 255.32633100088185 88.63300502688767 37.65986845447972 C 0.0 **** -0.24
33612 H 254.92756288645904 89.5230466317137 38.14619373732873 H 0.0 **** 0.06
33613 H 254.6927587657214 88.3672371368474 36.81325874244331 H 0.0 **** 0.06
33614 H 255.34742182732094 87.80853264083453 38.372106342284866 H 0.0 **** 0.06
33615 H 256.33843776508485 88.83476614110819 37.30656446548474 H 0.0 **** 0.06
33616 C 158.72396225512153 82.68854470061063 160.32334886275834 C 0.0 **** -0.24
33617 H 157.73967088821553 82.98646767831323 160.68687982666216 H 0.0 **** 0.06
33618 H 159.24380290925194 82.12811331446059 161.10076619491798 H 0.0 **** 0.06
33619 H 159.30037659407742 83.57743493976295 160.0674973406945 H 0.0 **** 0.06
33620 H 158.609246741731 82.06245316181298 159.43883765123599 H 0.0 **** 0.06
33621 C 83.65577908301162 270.6019981768361 89.70939227594869 C 0.0 **** -0.24
33622 H 82.61924068367597 270.26593716811556 89.69143418249064 H 0.0 **** 0.06
33623 H 83.797180608796 271.3826473479147 88.9618698143671 H 0.0 **** 0.06
33624 H 84.3139648640279 269.7615618627219 89.48730978463195 H 0.0 **** 0.06
33625 H 83.89261723474837 270.99697781219817 90.69806569731165 H 0.0 **** 0.06
33626 C 149.9141603939578 56.806680803688636 111.08281878163501 C 0.0 **** -0.24
33627 H 149.071671242401 56.43649612021147 110.49770795075023 H 0.0 **** 0.06
33628 H 150.8090290572145 56.23871120914612 110.82899214038329 H 0.0 **** 0.06
33629 H 149.6971903287577 56.68893250025957 112.14470704307848 H 0.0 **** 0.06
33630 H 150.07534534264386 57.86108259034617 110.85948129621315 H 0.0 **** 0.06
33631 C 195.5174613435846 95.89899751105915 172.86529963260762 C 0.0 **** -0.24
33632 H 195.76386062953117 96.69664816064028 173.56592876550815 H 0.0 **** 0.06
33633 H 194.94910410174492 96.31091910629542 172.03146691890237 H 0.0 **** 0.06
33634 H 194.92143264323403 95.14028636076037 173.373737961774 H 0.0 **** 0.06
33635 H 196.43637104191095 95.44790412423572 172.49037154057078 H 0.0 **** 0.06
33636 C 36.80362988818524 102.47192603519423 37.50082510999417 C 0.0 **** -0.24
33637 H 35.74803197789467 102.66352655511162 37.30766806657675 H 0.0 **** 0.06
33638 H 37.40683892719488 102.9508343172156 36.728985057630695 H 0.0 **** 0.06
33639 H 36.98512486138435 101.39655336552028 37.490797542530316 H 0.0 **** 0.06
33640 H 37.07328468540166 102.87618971053786 38.47690068315288 H 0.0 **** 0.06
33641 C 161.1465380466056 12.901316389334994 111.24020315946174 C 0.0 **** -0.24
33642 H 160.80054498636326 12.121164530378252 110.56259100897466 H 0.0 **** 0.06
33643 H 161.94989360209007 12.50927106306851 111.86415481214419 H 0.0 **** 0.06
33644 H 160.32056824964508 13.225285603658506 111.87344655103183 H 0.0 **** 0.06
33645 H 161.5144711095029 13.74809637490408 110.66129015673468 H 0.0 **** 0.06
33646 C 28.39428328780437 93.91888976387912 245.85969228485277 C 0.0 **** -0.24
33647 H 28.67959896700134 94.69891273660429 245.15412976234222 H 0.0 **** 0.06
33648 H 28.501398545512785 94.29321407486006 246.8782299551472 H 0.0 **** 0.06
33649 H 29.038089791482463 93.04963341447578 245.72193547324778 H 0.0 **** 0.06
33650 H 27.355951095014575 93.63307640639135 245.68477418266738 H 0.0 **** 0.06
33651 C 192.0211810294748 299.4568094792641 155.27491442869905 C 0.0 **** -0.24
33652 H 192.56279831244956 300.28995836814283 154.82851551334187 H 0.0 **** 0.06
33653 H 192.55636328633295 299.1059020832817 156.1570954191797 H 0.0 **** 0.06
33654 H 191.94236206812133 298.6456906843172 154.55130457517822 H 0.0 **** 0.06
33655 H 191.02183232102516 299.78567035783357 155.5623844926006 H 0.0 **** 0.06
33656 C 296.38124672682045 203.18551452042595 4.331744134041742 C 0.0 **** -0.24
33657 H 296.97973994675226 203.93690601890887 3.816689737426131 H 0.0 **** 0.06
33658 H 295.84030795718877 203.65473544032983 5.1543061873721285 H 0.0 **** 0.06
33659 H 297.03526684753376 202.40708298127123 4.723919308902381 H 0.0 **** 0.06
33660 H 295.6704958726142 202.74614247817613 3.632718543636102 H 0.0 **** 0.06
33661 C 102.88567243212955 260.8781664931463 146.45282600334184 C 0.0 **** -0.24
33662 H 103.24991898377874 259.91350898085597 146.09954752497387 H 0.0 **** 0.06
33663 H 102.59346090413524 260.7935231054468 147.50022243090498 H 0.0 **** 0.06
33664 H 102.02433046070183 261.181399092633 145.85826200721323 H 0.0 **** 0.06
33665 H 103.67633123923179 261.62237043417144 146.3541067161416 H 0.0 **** 0.06
33666 C 153.1368073221288 209.49170077221333 168.9053008419208 C 0.0 **** -0.24
33667 H 153.55230788920397 209.14918385111386 167.9571801792335 H 0.0 **** 0.06
33668 H 153.16584571818328 210.58108870622664 168.94209832279512 H 0.0 **** 0.06
33669 H 153.72504807005515 209.08426197756495 169.72776348710806 H 0.0 **** 0.06
33670 H 152.1049462792593 209.1513897156976 168.99298506838227 H 0.0 **** 0.06
33671 C 216.5395226300161 24.04930499266402 231.35678445154838 C 0.0 **** -0.24
33672 H 216.6996058153276 24.933964798601153 230.7414993584978 H 0.0 **** 0.06
33673 H 217.50299167984377 23.611917312570426 231.620200018983 H 0.0 **** 0.06
33674 H 215.94999888288396 23.321298865527808 230.79892140093278 H 0.0 **** 0.06
33675 H 216.00588013182647 24.329670639559254 232.2643455422484 H 0.0 **** 0.06
33676 C 289.59800561990085 275.56764055859253 104.81959765069482 C 0.0 **** -0.24
33677 H 289.2837983351373 274.6074682019707 105.22716871410375 H 0.0 **** 0.06
33678 H 289.8583676108859 276.2409719424276 105.63763422765399 H 0.0 **** 0.06
33679 H 288.78360581350444 275.9993973504062 104.23778206280525 H 0.0 **** 0.06
33680 H 290.4668689477669 275.42307945034656 104.17702706609967 H 0.0 **** 0.06
33681 C 165.77098912071568 233.0166616053656 38.99205288848222 C 0.0 **** -0.24
33682 H 164.82581674256966 232.58004997450908 38.66931025182569 H 0.0 **** 0.06
33683 H 165.57699765125977 233.79889788417802 39.726978102880935 H 0.0 **** 0.06
33684 H 166.28549447100653 233.44419829716156 38.13182270480115 H 0.0 **** 0.06
33685 H 166.39365242530954 232.24309900347873 39.44102689456929 H 0.0 **** 0.06
33686 C 186.49478775557247 269.2807555935972 193.87891271352936 C 0.0 **** -0.24
33687 H 187.01117215606507 269.2739867762686 194.83929841115304 H 0.0 **** 0.06
33688 H 187.22830505528754 269.2809852999366 193.0723324816102 H 0.0 **** 0.06
33689 H 185.8743744118608 270.17391837001384 193.8076253650596 H 0.0 **** 0.06
33690 H 185.86586684889102 268.3934025096271 193.79924871434127 H 0.0 **** 0.06
33691 C 157.1384265133451 44.8315946977074 2.8900020780895233 C 0.0 **** -0.24
33692 H 157.08524150608008 45.47170209405067 2.009163711747078 H 0.0 **** 0.06
33693 H 156.15016517900318 44.424334287138464 3.103135468882897 H 0.0 **** 0.06
33694 H 157.48256962735854 45.41718721148044 3.7436327262909685 H 0.0 **** 0.06
33695 H 157.83605332082027 44.01549546558519 2.7047232991347983 H 0.0 **** 0.06
33696 C 0.14012713754820538 155.04196499200089 72.0203510275249 C 0.0 **** -0.24
33697 H -0.5637034106514847 155.84594917238786 71.80253837399314 H 0.0 **** 0.06
33698 H 0.37108467895991737 154.5028300937721 71.10131755267469 H 0.0 **** 0.06
33699 H -0.30530339873739365 154.3572107368929 72.74175909214824 H 0.0 **** 0.06
33700 H 1.0555952293030373 155.46326562516037 72.4356777655083 H 0.0 **** 0.06
33701 C 104.57872993520755 126.48322902359331 27.030075546980697 C 0.0 **** -0.24
33702 H 104.53117607136315 127.06793899587075 27.947916612435847 H 0.0 **** 0.06
33703 H 103.80759343777495 125.71271129271548 27.050132505714487 H 0.0 **** 0.06
33704 H 105.55948227172246 126.01491576533806 26.948082281025506 H 0.0 **** 0.06
33705 H 104.4158179055122 127.13773590578546 26.173812292074444 H 0.0 **** 0.06
33706 C 82.44354011406114 66.27837442240167 153.4416448992377 C 0.0 **** -0.24
33707 H 82.43309755883095 67.08905381539017 154.17042622875368 H 0.0 **** 0.06
33708 H 81.49133144193615 66.25449567224626 152.91178189843498 H 0.0 **** 0.06
33709 H 82.59709965522313 65.33009552142659 153.9559774179869 H 0.0 **** 0.06
33710 H 83.25322534863324 66.4417965434539 152.72976121099282 H 0.0 **** 0.06
33711 C 116.13562642187296 270.7718333081659 2.892595140799841 C 0.0 **** -0.24
33712 H 115.14350144004254 270.5993395800116 3.310894421626486 H 0.0 **** 0.06
33713 H 116.24284247505449 271.8247968213681 2.6331362707601045 H 0.0 **** 0.06
33714 H 116.26385424361158 270.16109138485484 1.9989194284788994 H 0.0 **** 0.06
33715 H 116.89211473806674 270.4995939234397 3.629588018183256 H 0.0 **** 0.06
33716 C 160.29951325836652 202.40822419093348 274.73006616995974 C 0.0 **** -0.24
33717 H 159.21153761398688 202.3927368872329 274.67017052761594 H 0.0 **** 0.06
33718 H 160.64581969651692 201.52939759922714 275.2724673270067 H 0.0 **** 0.06
33719 H 160.62116192016606 203.30891973261356 275.25296771868005 H 0.0 **** 0.06
33720 H 160.71875313805504 202.40403578176102 273.72389733189794 H 0.0 **** 0.06
33721 C 28.08042996576421 93.53220701839825 72.03984290979443 C 0.0 **** -0.24
33722 H 27.806601057294728 93.42816347502387 73.08907549296092 H 0.0 **** 0.06
33723 H 27.19777897682914 93.8024566110615 71.45979572084386 H 0.0 **** 0.06
33724 H 28.480791040967745 92.58645188201442 71.67299473018008 H 0.0 **** 0.06
33725 H 28.835760066483687 94.31060926754466 71.93775607520462 H 0.0 **** 0.06
33726 C 213.44158041831344 177.87185072577955 73.90234689482469 C 0.0 **** -0.24
33727 H 213.61670847325917 176.87576780595373 74.30975496351022 H 0.0 **** 0.06
33728 H 212.4638613052037 178.22889314888346 74.22390931196031 H 0.0 **** 0.06
33729 H 213.47365363099172 177.8297242917285 72.81339417552942 H 0.0 **** 0.06
33730 H 214.21375280656778 178.5515552631441 74.26197711088423 H 0.0 **** 0.06
33731 C 104.51185715416693 170.2125710404885 54.48523089166454 C 0.0 **** -0.24
33732 H 103.66958556850113 170.5697281450038 53.89161170876463 H 0.0 **** 0.06
33733 H 105.43954887114074 170.60829933825943 54.072059569164566 H 0.0 **** 0.06
33734 H 104.53848275692818 169.12326830279193 54.46071616322638 H 0.0 **** 0.06
33735 H 104.3984801412698 170.5515120007537 55.51517265225186 H 0.0 **** 0.06
33736 C 86.32557537420416 30.008282319720593 163.6165452785691 C 0.0 **** -0.24
33737 H 85.34274304534415 29.949052506158864 163.14948340871 H 0.0 **** 0.06
33738 H 86.98983199077819 30.605103737127422 162.99028838249257 H 0.0 **** 0.06
33739 H 86.73617465287262 29.003712142845984 163.72801882423988 H 0.0 **** 0.06
33740 H 86.23500223594121 30.47413437903299 164.59711486266713 H 0.0 **** 0.06
33741 C 68.13207384273673 165.37324445363072 238.74647944192554 C 0.0 **** -0.24
33742 H 67.1664210911508 165.79306457624682 239.02436641224674 H 0.0 **** 0.06
33743 H 68.07476388801098 164.96742554320946 237.73658195707276 H 0.0 **** 0.06
33744 H 68.3965413985579 164.57868821571833 239.44388796250547 H 0.0 **** 0.06
33745 H 68.89127102417424 166.1549685924153 238.78145605060206 H 0.0 **** 0.06
33746 C 70.87648302874533 175.3482268900408 208.73482228760076 C 0.0 **** -0.24
33747 H 71.95222201218019 175.51767491710405 208.70776033855526 H 0.0 **** 0.06
33748 H 70.57321502971737 175.10121971338714 209.7523282218777 H 0.0 **** 0.06
33749 H 70.62159345070503 174.52332059758714 208.06825475985642 H 0.0 **** 0.06
33750 H 70.3583033559265 176.25088285139879 208.409678632951 H 0.0 **** 0.06
33751 C 113.05957898711219 194.75861664206894 250.19139423970213 C 0.0 **** -0.24
33752 H 113.46894577003735 195.35498717585904 249.37567163008734 H 0.0 **** 0.06
33753 H 113.51992139477633 193.77077015589242 250.18428536760183 H 0.0 **** 0.06
33754 H 111.98178381158607 194.65892470320728 250.06216023608923 H 0.0 **** 0.06
33755 H 113.26742114190898 195.24987549116526 251.14147672438867 H 0.0 **** 0.06
33756 C 111.89121415245353 97.76215862132264 32.070647785008134 C 0.0 **** -0.24
33757 H 111.9099582833664 98.81251108882145 32.359726835209756 H 0.0 **** 0.06
33758 H 112.13870942585862 97.67193422748224 31.0124719948069 H 0.0 **** 0.06
33759 H 110.8957482089815 97.35428547477053 32.247516108542015 H 0.0 **** 0.06
33760 H 112.6206299560057 97.20893813940293 32.66305477188831 H 0.0 **** 0.06
33761 C 272.1005349273994 116.28281891418737 290.0093449829661 C 0.0 **** -0.24
33762 H 273.15453683343503 116.10329446762768 289.79603462792124 H 0.0 **** 0.06
33763 H 271.6466990678947 115.36866104965239 290.39342670094635 H 0.0 **** 0.06
33764 H 271.5912422053259 116.58484652822796 289.09397424094584 H 0.0 **** 0.06
33765 H 272.0106318482763 117.07433006466005 290.7537493675049 H 0.0 **** 0.06
33766 C 35.397669984328104 173.23613824147094 33.81810305287712 C 0.0 **** -0.24
33767 H 35.47776159178156 172.53847450262242 34.65151590984496 H 0.0 **** 0.06
33768 H 35.872722286228 174.17984499472993 34.08796269910519 H 0.0 **** 0.06
33769 H 34.34615230944641 173.41062070065158 33.58962810493898 H 0.0 **** 0.06
33770 H 35.894889482350806 172.81533086726353 32.943758568357055 H 0.0 **** 0.06
33771 C 275.19731365682964 304.62411968661615 240.82831059863352 C 0.0 **** -0.24
33772 H 275.5092159252698 305.66583467941996 240.91533477524064 H 0.0 **** 0.06
33773 H 276.06888883625726 303.9994894095335 240.63052263841172 H 0.0 **** 0.06
33774 H 274.48560008375205 304.5259081287584 240.00863893907982 H 0.0 **** 0.06
33775 H 274.72666067754807 304.30802973910926 241.7588863692988 H 0.0 **** 0.06
33776 C 12.752755292462709 79.81600871618733 301.41444237700824 C 0.0 **** -0.24
33777 H 12.397332971890805 79.51218322527046 300.4304040698606 H 0.0 **** 0.06
33778 H 12.760660232576797 78.95246794538048 302.08030963383146 H 0.0 **** 0.06
33779 H 12.091995935682036 80.5816098573265 301.8186840204654 H 0.0 **** 0.06
33780 H 13.762920740530475 80.21689031405563 301.32708640998794 H 0.0 **** 0.06
33781 C 306.11628854952414 127.29582251276182 67.65783983527027 C 0.0 **** -0.24
33782 H 306.77830793190094 127.17831385598151 68.51595486508708 H 0.0 **** 0.06
33783 H 305.08823569177554 127.09836859174862 67.9620118623186 H 0.0 **** 0.06
33784 H 306.406010340069 126.59212244444285 66.87709477409945 H 0.0 **** 0.06
33785 H 306.1941830460632 128.3137826415175 67.27633233532461 H 0.0 **** 0.06
33786 C 37.02288977658699 253.4334383085455 30.76592535685583 C 0.0 **** -0.24
33787 H 36.54426426055258 252.45498495858214 30.80249044789059 H 0.0 **** 0.06
33788 H 37.41429469426893 253.60877480664104 29.762924528781923 H 0.0 **** 0.06
33789 H 37.84002683137706 253.4644286815812 31.485942701013755 H 0.0 **** 0.06
33790 H 36.29228561724861 254.20427824632532 31.01064908181806 H 0.0 **** 0.06
33791 C 10.775191578777154 157.09283223179318 252.03673813790436 C 0.0 **** -0.24
33792 H 10.412665545037228 157.35571377904375 251.04359539320842 H 0.0 **** 0.06
33793 H 10.787327606732873 156.0080851309536 252.14429182351319 H 0.0 **** 0.06
33794 H 10.116366785046637 157.52603606475174 252.78946297551335 H 0.0 **** 0.06
33795 H 11.784255418655363 157.4824695762136 252.16976165128858 H 0.0 **** 0.06
33796 C 118.39347625163688 260.78953772238356 207.2455235411217 C 0.0 **** -0.24
33797 H 119.30652283105405 261.17012247680316 207.70152850926422 H 0.0 **** 0.06
33798 H 117.52780747499364 261.2196584611393 207.75069289474732 H 0.0 **** 0.06
33799 H 118.36589022004671 259.7044504181782 207.33821602756515 H 0.0 **** 0.06
33800 H 118.37181043848841 261.06521247765113 206.19075324581536 H 0.0 **** 0.06
33801 C 93.49057371356886 171.29517557761187 224.70821278611567 C 0.0 **** -0.24
33802 H 93.4936604404466 172.1558283101761 224.03955839499315 H 0.0 **** 0.06
33803 H 93.04010377116191 171.57592791361213 225.66036472137694 H 0.0 **** 0.06
33804 H 94.51472769474935 170.96201857952866 224.8745028485277 H 0.0 **** 0.06
33805 H 92.91361169240372 170.48757265752283 224.25654177299396 H 0.0 **** 0.06
33806 C 161.5124071698903 228.9426142794685 122.26342160507843 C 0.0 **** -0.24
33807 H 161.71493961379645 229.21270667793755 123.29981248465708 H 0.0 **** 0.06
33808 H 160.94695638631225 228.01173065405152 122.23431090554502 H 0.0 **** 0.06
33809 H 162.45541559731976 228.8121262673017 121.73210782152131 H 0.0 **** 0.06
33810 H 160.93419332210226 229.73508477239645 121.78770150199998 H 0.0 **** 0.06
33811 C 254.65693665600367 272.6377711949407 282.2674087935552 C 0.0 **** -0.24
33812 H 254.27426500700273 273.12208399134306 281.36856794119285 H 0.0 **** 0.06
33813 H 253.83014035160585 272.42547844659475 282.94459562604845 H 0.0 **** 0.06
33814 H 255.37000925920782 273.2988725913869 282.7597884798751 H 0.0 **** 0.06
33815 H 255.1534642447633 271.7067794725798 281.99548028730703 H 0.0 **** 0.06
33816 C 4.53294329126328 117.38936248954514 95.97751079750856 C 0.0 **** -0.24
33817 H 4.676765751055882 118.15658663807062 96.73732495196575 H 0.0 **** 0.06
33818 H 3.519733377380078 117.4566064246836 95.57974166962995 H 0.0 **** 0.06
33819 H 4.685143443618472 116.40585887984079 96.42140505348462 H 0.0 **** 0.06
33820 H 5.250708141870064 117.53924241857922 95.17059507760749 H 0.0 **** 0.06
33821 C 287.78603210909625 251.99117233992416 174.60251807392308 C 0.0 **** -0.24
33822 H 288.7963705029915 251.75160723945302 174.2714648442036 H 0.0 **** 0.06
33823 H 287.42693321176597 251.2068831196892 175.2700926077186 H 0.0 **** 0.06
33824 H 287.12701381547004 252.06162014216426 173.7367644433238 H 0.0 **** 0.06
33825 H 287.79338458204904 252.94369932723242 175.13196177026424 H 0.0 **** 0.06
33826 C 192.67719215110264 249.70354759780062 14.29934283885666 C 0.0 **** -0.24
33827 H 191.99952672005628 249.5606571454322 15.140547468179761 H 0.0 **** 0.06
33828 H 193.59288965787266 249.1366028027433 14.46993600862696 H 0.0 **** 0.06
33829 H 192.91804889059637 250.76211024907641 14.202960821874157 H 0.0 **** 0.06
33830 H 192.19852182971545 249.35572946606948 13.384281301241842 H 0.0 **** 0.06
33831 C 294.97381075707636 174.84629344813703 153.1689104098221 C 0.0 **** -0.24
33832 H 294.62227571109446 174.22678840153816 152.34382680270454 H 0.0 **** 0.06
33833 H 294.7991967641418 175.8958723424193 152.93484964285778 H 0.0 **** 0.06
33834 H 296.04007453909526 174.678665470623 153.32068905797132 H 0.0 **** 0.06
33835 H 294.4326574211202 174.58146947187572 154.07740129010995 H 0.0 **** 0.06
33836 C 301.56391094663576 34.39124002313304 99.76658578587205 C 0.0 **** -0.24
33837 H 301.38302891076546 33.631050341788665 100.5268644780605 H 0.0 **** 0.06
33838 H 302.4806608642035 34.93072061609814 100.00355334955469 H 0.0 **** 0.06
33839 H 300.72675977070327 35.089295746577704 99.74462063798771 H 0.0 **** 0.06
33840 H 301.6641654708007 33.91295212700723 98.79154062017773 H 0.0 **** 0.06
33841 C 95.61449692397656 37.51667255762547 50.59873642017561 C 0.0 **** -0.24
33842 H 94.65020757549968 37.135397849099974 50.26436836824962 H 0.0 **** 0.06
33843 H 95.95486549861087 36.94017669944938 51.45886728724915 H 0.0 **** 0.06
33844 H 95.51223229550126 38.565014635317084 50.88046534523204 H 0.0 **** 0.06
33845 H 96.34061169476487 37.427228162850895 49.79039342840491 H 0.0 **** 0.06
33846 C 100.4226576795541 100.1922842053485 119.25421001342346 C 0.0 **** -0.24
33847 H 99.62670959821179 99.83269323736477 118.60224043085321 H 0.0 **** 0.06
33848 H 101.34272510778948 99.64975656937571 119.03673807987519 H 0.0 **** 0.06
33849 H 100.14090712809022 100.03041501025518 120.29427892310457 H 0.0 **** 0.06
33850 H 100.57922350382538 101.2571444653361 119.08155683513709 H 0.0 **** 0.06
33851 C 213.83832985003937 135.43148240449094 77.44382488170507 C 0.0 **** -0.24
33852 H 213.34949113228663 135.31365912263175 76.47743742000517 H 0.0 **** 0.06
33853 H 213.8772018303011 136.48953316033558 77.70409381942116 H 0.0 **** 0.06
33854 H 214.85178021240444 135.0333919237023 77.3895323050188 H 0.0 **** 0.06
33855 H 213.2764343289682 134.88999810401674 78.20400809637329 H 0.0 **** 0.06
33856 C 10.94327774719278 8.76532264211383 121.18633711221659 C 0.0 **** -0.24
33857 H 10.035313266279957 8.25557350997616 121.50999538518528 H 0.0 **** 0.06
33858 H 11.165466030893072 9.581408358428803 121.87362149182027 H 0.0 **** 0.06
33859 H 10.796911985286897 9.16542172457764 120.18272755629357 H 0.0 **** 0.06
33860 H 11.773165538153705 8.059189269596189 121.17991361503866 H 0.0 **** 0.06
33861 C 174.59823007417418 35.08677280070978 117.78864201915633 C 0.0 **** -0.24
33862 H 174.59524969093218 36.138256070663516 118.07371287843682 H 0.0 **** 0.06
33863 H 175.61418051320487 34.780195488812495 117.53995666233928 H 0.0 **** 0.06
33864 H 173.9529271018605 34.94326149378102 116.9213583668512 H 0.0 **** 0.06
33865 H 174.22832316529912 34.48402669989048 118.61807156202718 H 0.0 **** 0.06
33866 C 207.29584072348803 200.44608589240227 30.85103490138991 C 0.0 **** -0.24
33867 H 208.03798325013568 201.05275255311125 30.332090412103412 H 0.0 **** 0.06
33868 H 207.49169533397614 199.39117137681268 30.662152184373753 H 0.0 **** 0.06
33869 H 206.30079586130717 200.70238588408466 30.488482308506548 H 0.0 **** 0.06
33870 H 207.35324346039755 200.6401898064292 31.922521695796206 H 0.0 **** 0.06
33871 C 205.87044478143764 309.85423974185653 266.0524521435337 C 0.0 **** -0.24
33872 H 206.6334545860858 309.4590762276408 266.7234135335542 H 0.0 **** 0.06
33873 H 206.3470460763852 310.4418903228605 265.26809677228397 H 0.0 **** 0.06
33874 H 205.18516774200526 310.4881215365039 266.61573235999145 H 0.0 **** 0.06
33875 H 205.31831460045817 309.02871744952705 265.60441692905545 H 0.0 **** 0.06
33876 C 233.96595754670568 123.35058873348734 98.34208328150521 C 0.0 **** -0.24
33877 H 233.88707854268836 122.32134283302815 97.99295103410873 H 0.0 **** 0.06
33878 H 235.01644496175834 123.61033072549404 98.47263839645274 H 0.0 **** 0.06
33879 H 233.44518752169776 123.45099857753499 99.29551907075029 H 0.0 **** 0.06
33880 H 233.5136648600007 124.01824677403297 97.6094207316149 H 0.0 **** 0.06
33881 C 10.74281896008614 287.85432926849114 223.1037293612737 C 0.0 **** -0.24
33882 H 10.978805863516541 287.9251177962205 224.1663104279428 H 0.0 **** 0.06
33883 H 9.843942230581817 288.4349565678035 222.89216395215047 H 0.0 **** 0.06
33884 H 10.572613611308242 286.811381910733 222.83861373904648 H 0.0 **** 0.06
33885 H 11.575394826356586 288.24720160800393 222.51954180161437 H 0.0 **** 0.06
33886 C 204.0105784364112 216.26559835429373 131.98397540764117 C 0.0 **** -0.24
33887 H 204.4768626561705 216.62300246133805 132.90179983430002 H 0.0 **** 0.06
33888 H 204.15005148679728 217.00510585774964 131.194296182473 H 0.0 **** 0.06
33889 H 202.9454260817306 216.1123015874876 132.15334750214026 H 0.0 **** 0.06
33890 H 204.4710739121578 215.32373210010485 131.68560277754193 H 0.0 **** 0.06
33891 C 26.758788542858838 88.56465575283784 302.0983238259614 C 0.0 **** -0.24
33892 H 26.816279020313914 87.4784721119081 302.16141335375784 H 0.0 **** 0.06
33893 H 26.28098996619258 88.95598934358549 302.9969393692369 H 0.0 **** 0.06
33894 H 26.175045349174866 88.84736197302988 301.22327787339816 H 0.0 **** 0.06
33895 H 27.765096322019872 88.97708329194973 302.0136211888333 H 0.0 **** 0.06
33896 C 5.497503253311834 281.65445615215674 132.32720029471875 C 0.0 **** -0.24
33897 H 5.243591930301733 282.18025561516515 131.40644716956515 H 0.0 **** 0.06
33898 H 6.5759533739490905 281.5082197383532 132.3760223466738 H 0.0 **** 0.06
33899 H 4.996852213106067 280.68613469744054 132.34208142693294 H 0.0 **** 0.06
33900 H 5.172351837159951 282.2453034169975 133.1840505851787 H 0.0 **** 0.06
33901 C 282.0895559481784 62.1033464276839 226.52366799942342 C 0.0 **** -0.24
33902 H 282.56672558672574 61.7796641913267 227.44858437136548 H 0.0 **** 0.06
33903 H 281.5575676746764 63.038369212273125 226.6978265963429 H 0.0 **** 0.06
33904 H 281.38498091323873 61.34014571686481 226.1930246180525 H 0.0 **** 0.06
33905 H 282.84912027322105 62.25366289756445 225.75684511083668 H 0.0 **** 0.06
33906 C 145.98175214354964 63.03078666606672 86.82018521422663 C 0.0 **** -0.24
33907 H 145.95054473199346 62.0986047840739 86.25656354674405 H 0.0 **** 0.06
33908 H 147.01264644410307 63.37808656771128 86.89052062684502 H 0.0 **** 0.06
33909 H 145.58640901074799 62.86225338633798 87.82272134746995 H 0.0 **** 0.06
33910 H 145.3781436841213 63.78243897992786 86.31345553511221 H 0.0 **** 0.06
33911 C 26.207227259120316 158.2968193604657 198.4326011028786 C 0.0 **** -0.24
33912 H 26.536614326565143 157.3436873862118 198.01836572124205 H 0.0 **** 0.06
33913 H 25.809165587952833 158.13923010811476 199.43544101401233 H 0.0 **** 0.06
33914 H 25.43173672296541 158.72070882850892 197.79484684316094 H 0.0 **** 0.06
33915 H 27.05264849237315 158.98305812302254 198.48148513745173 H 0.0 **** 0.06
33916 C 63.986722365134824 251.51591385405496 232.92041697426782 C 0.0 **** -0.24
33917 H 65.01283416748905 251.364301044142 233.25481714343306 H 0.0 **** 0.06
33918 H 63.298658119302615 251.24557873242648 233.72133698590434 H 0.0 **** 0.06
33919 H 63.792131047239394 250.89229285769778 232.0478956727154 H 0.0 **** 0.06
33920 H 63.84299521416682 252.56416267895338 232.65629718658096 H 0.0 **** 0.06
33921 C 68.4338168115516 13.988779169440136 195.37849271109718 C 0.0 **** -0.24
33922 H 68.51375254976031 14.87793038915072 194.75393548277253 H 0.0 **** 0.06
33923 H 68.86872510425778 14.192291856316388 196.35725658207605 H 0.0 **** 0.06
33924 H 68.96926692085898 13.164637988473771 194.90782526878615 H 0.0 **** 0.06
33925 H 67.38416856320902 13.719515467350448 195.49513730970563 H 0.0 **** 0.06
33926 C 304.2509413388724 98.81436586427617 296.8518377780291 C 0.0 **** -0.24
33927 H 304.59985285213224 99.68510772404989 296.29528074894216 H 0.0 **** 0.06
33928 H 303.3606766783554 98.40931284214105 296.3713471633769 H 0.0 **** 0.06
33929 H 304.011707378073 99.10862606136521 297.87315085096344 H 0.0 **** 0.06
33930 H 305.0345582503849 98.0558701575631 296.866265372461 H 0.0 **** 0.06
33931 C 182.18085538139974 103.06600046565623 112.33129431835323 C 0.0 **** -0.24
33932 H 181.878944771127 102.72305909107885 111.34114102127145 H 0.0 **** 0.06
33933 H 182.74291342909578 102.27781267997446 112.83247903132076 H 0.0 **** 0.06
33934 H 181.29429935866045 103.30877984507686 112.9166232334529 H 0.0 **** 0.06
33935 H 182.80537860129408 103.95354531693397 112.23274366178575 H 0.0 **** 0.06
33936 C 80.90226976058173 201.1130998758137 199.64621254218372 C 0.0 **** -0.24
33937 H 81.67290380049573 201.8473211029248 199.87989547632344 H 0.0 **** 0.06
33938 H 79.9494243336371 201.4420496281585 200.06194443483213 H 0.0 **** 0.06
33939 H 81.17520627228785 200.15072864500894 200.07952377678225 H 0.0 **** 0.06
33940 H 80.8122903049238 201.01249671989615 198.56467195033252 H 0.0 **** 0.06
33941 C 301.6413232986637 231.78144167146792 175.59595950591586 C 0.0 **** -0.24
33942 H 301.77197393495237 230.80928359439764 175.12154467642705 H 0.0 **** 0.06
33943 H 301.20924558973593 231.64599642128383 176.58820030039954 H 0.0 **** 0.06
33944 H 300.9752600846673 232.39506049336416 174.98992808482905 H 0.0 **** 0.06
33945 H 302.6091434921764 232.27491799061855 175.68631738639556 H 0.0 **** 0.06
33946 C 160.74408967032235 88.32511674589892 34.10360552620091 C 0.0 **** -0.24
33947 H 161.38247040694597 88.56049946869541 33.25088085332149 H 0.0 **** 0.06
33948 H 160.253079130348 87.36648039562158 33.93479098410589 H 0.0 **** 0.06
33949 H 159.99073243695608 89.10417117469109 34.21824157488297 H 0.0 **** 0.06
33950 H 161.3510659008126 88.26958896157907 35.00691049566126 H 0.0 **** 0.06
33951 C 239.1508904737738 181.27179128312048 139.54735355656723 C 0.0 **** -0.24
33952 H 239.53055317403422 182.29150425234428 139.48596917194564 H 0.0 **** 0.06
33953 H 239.53435760197567 180.79533773914238 140.4494573925016 H 0.0 **** 0.06
33954 H 239.4787829909456 180.7094467510376 138.67197336312873 H 0.0 **** 0.06
33955 H 238.06180356734865 181.29058012329358 139.57997313795548 H 0.0 **** 0.06
33956 C 27.49735384879719 272.6476798292415 273.22225835574807 C 0.0 **** -0.24
33957 H 27.237136010673566 272.1101147611994 274.1340509988815 H 0.0 **** 0.06
33958 H 26.594745472209553 273.0695251717296 272.78043941728856 H 0.0 **** 0.06
33959 H 27.961312711667972 271.95994178444624 272.5153998803154 H 0.0 **** 0.06
33960 H 28.194883424389474 273.4502742983477 273.4598250936484 H 0.0 **** 0.06
33961 C 291.65126796398636 305.81440236896435 160.4726970048368 C 0.0 **** -0.24
33962 H 291.97504582157325 306.6078912386322 159.79940014522498 H 0.0 **** 0.06
33963 H 291.0299970059158 305.10440817681774 159.92518444649806 H 0.0 **** 0.06
33964 H 291.07533820267514 306.24513741031967 161.29160761226274 H 0.0 **** 0.06
33965 H 292.5241463838373 305.2989340223493 160.87418424118744 H 0.0 **** 0.06
33966 C 280.82860176580266 12.645052221465292 217.01410624866156 C 0.0 **** -0.24
33967 H 281.6680405123352 11.950547623299386 217.0036516138615 H 0.0 **** 0.06
33968 H 279.91233109679206 12.111691205794827 216.7580819438719 H 0.0 **** 0.06
33969 H 281.0032407714332 13.437500420789988 216.2860668123014 H 0.0 **** 0.06
33970 H 280.7298283083211 13.080212835679674 218.00863799495173 H 0.0 **** 0.06
33971 C 126.38518550669474 70.17527202841916 80.78171548795689 C 0.0 **** -0.24
33972 H 127.21270778031754 69.47449639482934 80.89013940535028 H 0.0 **** 0.06
33973 H 125.81501089449145 70.21100080569846 81.71079337628683 H 0.0 **** 0.06
33974 H 125.73567192917653 69.84693650485895 79.96925302480784 H 0.0 **** 0.06
33975 H 126.77567739424296 71.16722389800043 80.5562871836388 H 0.0 **** 0.06
33976 C 236.95813175192254 56.2878122453248 272.56978999306773 C 0.0 **** -0.24
33977 H 237.16445326711965 57.06255072133638 273.30890167642275 H 0.0 **** 0.06
33978 H 236.6995014476442 55.359614985366335 273.0793413272486 H 0.0 **** 0.06
33979 H 237.84229212995433 56.130304827451255 271.95252328672353 H 0.0 **** 0.06
33980 H 236.12537296959104 56.60145022592647 271.9394128181964 H 0.0 **** 0.06
33981 C 210.5120030460634 178.85639650980647 272.1636690749825 C 0.0 **** -0.24
33982 H 210.1763966393703 178.30031153321642 273.03962923009135 H 0.0 **** 0.06
33983 H 209.71297857073966 179.51745597338504 271.8260677875212 H 0.0 **** 0.06
33984 H 210.76787707066688 178.15810929777092 271.3669446547286 H 0.0 **** 0.06
33985 H 211.38915354732003 179.44868292379772 272.4243511651001 H 0.0 **** 0.06
33986 C 249.4500888505325 243.31610534345967 40.07920328490732 C 0.0 **** -0.24
33987 H 250.45152127411862 243.4236562650081 39.6622509482784 H 0.0 **** 0.06
33988 H 249.09544894611176 242.2978957758603 39.91378510996253 H 0.0 **** 0.06
33989 H 248.77549251754675 244.01939553194848 39.59173426565536 H 0.0 **** 0.06
33990 H 249.478619311804 243.520566810432 41.14918920466471 H 0.0 **** 0.06
33991 C 195.0982997939796 5.699228367855127 275.3943208674019 C 0.0 **** -0.24
33992 H 195.22789293288508 6.780128642550892 275.4469760057713 H 0.0 **** 0.06
33993 H 194.43270253315177 5.374436747707804 276.1944215125456 H 0.0 **** 0.06
33994 H 196.06747034951945 5.211898459169291 275.506340284672 H 0.0 **** 0.06
33995 H 194.66668480253975 5.430952906466686 274.43070314228555 H 0.0 **** 0.06
33996 C 308.4653238915971 38.33192461169767 154.51776050024665 C 0.0 **** -0.24
33997 H 309.4477825427141 38.4658275752264 154.06311629535372 H 0.0 **** 0.06
33998 H 308.23428800290463 37.26859886291021 154.5754849902919 H 0.0 **** 0.06
33999 H 307.7138856480747 38.83471415105802 153.90963173797024 H 0.0 **** 0.06
34000 H 308.467889486081 38.75932492152387 155.51935809049849 H 0.0 **** 0.06
34001 C 158.80804710688398 142.81143847874188 279.33498795138246 C 0.0 **** -0.24
34002 H 159.19873438347918 143.79057898939402 279.057930805117 H 0.0 **** 0.06
34003 H 158.02705507952646 142.5206931097917 278.6323010123796 H 0.0 **** 0.06
34004 H 158.39198642432223 142.85747076333487 280.3419074574454 H 0.0 **** 0.06
34005 H 159.61304368362624 142.07713655661237 279.3081449299983 H 0.0 **** 0.06
34006 C 261.82398563966433 69.6251158546869 194.8855691586486 C 0.0 **** -0.24
34007 H 261.51229421922613 69.22589545244523 193.92034282291365 H 0.0 **** 0.06
34008 H 262.1591843466802 68.8080977000169 195.52500212199794 H 0.0 **** 0.06
34009 H 260.9835984846721 70.13412916664964 195.35665219181368 H 0.0 **** 0.06
34010 H 262.6414773235999 70.33143348588123 194.73938399351562 H 0.0 **** 0.06
34011 C 292.07072434969103 194.89758148457867 64.97903148323397 C 0.0 **** -0.24
34012 H 292.9699349299054 195.41745444067612 65.30697017290822 H 0.0 **** 0.06
34013 H 291.24742672979664 195.13506298048196 65.65249560004023 H 0.0 **** 0.06
34014 H 292.24938193935225 193.82286393418923 64.9873379591746 H 0.0 **** 0.06
34015 H 291.81657065702626 195.21530232486674 63.96715465076136 H 0.0 **** 0.06
34016 C 305.4567104363182 177.38068812703636 112.7503175781689 C 0.0 **** -0.24
34017 H 305.26166233492495 177.23890440063002 111.68750623025102 H 0.0 **** 0.06
34018 H 305.1679842252422 176.48222342116696 113.2959966949388 H 0.0 **** 0.06
34019 H 304.87884852247976 178.23017198916688 113.11538487291514 H 0.0 **** 0.06
34020 H 306.51932710630433 177.57247158213124 112.9024072665147 H 0.0 **** 0.06
34021 C 63.3727789856473 48.77074960495986 170.51110333380637 C 0.0 **** -0.24
34022 H 64.15949044027332 48.45274505182064 169.82604527284684 H 0.0 **** 0.06
34023 H 62.65449013164883 49.391312353348326 169.97528587642682 H 0.0 **** 0.06
34024 H 63.811719414232215 49.344051858597794 171.32701887562752 H 0.0 **** 0.06
34025 H 62.86591623754876 47.894315275380535 170.91373513361805 H 0.0 **** 0.06
34026 C 221.66425842983767 209.12540474027077 177.97619945142884 C 0.0 **** -0.24
34027 H 221.06919176052986 209.35772446737536 177.0925645964391 H 0.0 **** 0.06
34028 H 221.1822980139459 208.32310602446756 178.53640770353695 H 0.0 **** 0.06
34029 H 221.7433167752664 210.01177130734516 178.60501375878363 H 0.0 **** 0.06
34030 H 222.66055960880115 208.80742429131843 177.669985895094 H 0.0 **** 0.06
34031 C 41.108208027645645 294.1186484778627 263.89146029121724 C 0.0 **** -0.24
34032 H 41.31638085781583 293.0574895425036 263.7517636904667 H 0.0 **** 0.06
34033 H 40.46083699287422 294.25129331889684 264.7583780727878 H 0.0 **** 0.06
34034 H 40.61328134518337 294.51106806671265 263.00413690763816 H 0.0 **** 0.06
34035 H 42.04513646294626 294.65390694147806 264.05222671669287 H 0.0 **** 0.06
34036 C 70.13742755467396 44.96395417648063 82.46914441191439 C 0.0 **** -0.24
34037 H 69.31798494202735 44.8731074288134 81.7566487840347 H 0.0 **** 0.06
34038 H 70.04799373981601 44.18651473212378 83.22795259156226 H 0.0 **** 0.06
34039 H 70.09737645011535 45.9436710170103 82.94475051922586 H 0.0 **** 0.06
34040 H 71.08767527843051 44.85363087149827 81.94548480159148 H 0.0 **** 0.06
34041 C 60.29083296797921 37.97021303772931 119.97061588738381 C 0.0 **** -0.24
34042 H 59.92941755968093 38.8980020527913 120.41212442432888 H 0.0 **** 0.06
34043 H 59.815455081685286 37.819404941924404 119.00123354028025 H 0.0 **** 0.06
34044 H 60.048147876751386 37.13613993888697 120.62893599309265 H 0.0 **** 0.06
34045 H 61.37191397799023 38.02675325855688 119.84052589330815 H 0.0 **** 0.06
34046 C 80.92892039164857 208.35227572789267 227.13501824271185 C 0.0 **** -0.24
34047 H 81.3989165302929 209.33009617575578 227.24953531799693 H 0.0 **** 0.06
34048 H 80.84187820721291 208.11482930156146 226.07487664764588 H 0.0 **** 0.06
34049 H 79.93755143795266 208.3716803270213 227.5862835786167 H 0.0 **** 0.06
34050 H 81.53942329046131 207.5966730010363 227.62892721951476 H 0.0 **** 0.06
34051 C 176.49585272630242 228.64118313999654 160.28320049894546 C 0.0 **** -0.24
34052 H 177.10135562058258 229.48717574859725 160.60873713604366 H 0.0 **** 0.06
34053 H 176.16062611181547 228.80788208896274 159.25888515049058 H 0.0 **** 0.06
34054 H 175.6298101355993 228.54215463535343 160.93687161799863 H 0.0 **** 0.06
34055 H 177.09130350218697 227.7297097208878 160.32725644091647 H 0.0 **** 0.06
34056 C 38.34748354594629 81.55690249142535 120.77580714779634 C 0.0 **** -0.24
34057 H 37.53393322142503 80.95431787493811 120.3741431199098 H 0.0 **** 0.06
34058 H 38.22123572945327 81.6670544370709 121.85349606110563 H 0.0 **** 0.06
34059 H 38.33568303764625 82.541407068273 120.30613295798346 H 0.0 **** 0.06
34060 H 39.29881056318513 81.06721194403383 120.56895110657962 H 0.0 **** 0.06
34061 C 71.97757804728786 174.40057838682247 100.86467063349843 C 0.0 **** -0.24
34062 H 72.00269637660452 174.9420225115818 101.81033583805825 H 0.0 **** 0.06
34063 H 72.91490171153904 174.55759374072602 100.33138377367368 H 0.0 **** 0.06
34064 H 71.1484610968551 174.764809119606 100.25918537399318 H 0.0 **** 0.06
34065 H 71.84461137151371 173.3365371257604 101.05952290218258 H 0.0 **** 0.06
34066 C 102.51767569390344 79.54449075025548 35.14315984818981 C 0.0 **** -0.24
34067 H 103.32847854445083 78.81767273544244 35.09057979203263 H 0.0 **** 0.06
34068 H 101.95731928103359 79.39615129553525 36.066570617740496 H 0.0 **** 0.06
34069 H 101.85355899699175 79.41042298744406 34.28964113417496 H 0.0 **** 0.06
34070 H 102.93194479333326 80.55202800124687 35.12718655411334 H 0.0 **** 0.06
34071 C 30.906908302230192 48.8623203016399 188.7037758812454 C 0.0 **** -0.24
34072 H 31.76795603582221 49.452555904896485 188.39251059792014 H 0.0 **** 0.06
34073 H 31.160628823899827 47.8023656772956 188.66767261249612 H 0.0 **** 0.06
34074 H 30.069735163595396 49.05805658819463 188.03314946090552 H 0.0 **** 0.06
34075 H 30.628884378031046 49.13495544637567 189.7217592428657 H 0.0 **** 0.06
34076 C 194.83847730417028 190.9783601569926 242.5248207992209 C 0.0 **** -0.24
34077 H 195.39744350082975 191.1597809759918 243.4428527308732 H 0.0 **** 0.06
34078 H 193.78061074808352 190.86437307659384 242.76127934619785 H 0.0 **** 0.06
34079 H 195.20524477109313 190.06804516156967 242.05114413543004 H 0.0 **** 0.06
34080 H 194.97193680602436 191.82057535516168 241.8466139968546 H 0.0 **** 0.06
34081 C 22.522867316654498 211.89989802934272 172.5656901260453 C 0.0 **** -0.24
34082 H 21.479603561533878 211.59655475424307 172.64956468543602 H 0.0 **** 0.06
34083 H 22.636193689086724 212.91759390702947 172.94017455412177 H 0.0 **** 0.06
34084 H 22.828855961823535 211.86086755280303 171.5203964259452 H 0.0 **** 0.06
34085 H 23.145308268075013 211.22462748783593 173.15177399578823 H 0.0 **** 0.06
34086 C 299.8200743341346 192.9867811242538 29.325676534403158 C 0.0 **** -0.24
34087 H 299.06823308524906 193.6472070509078 29.757107501509125 H 0.0 **** 0.06
34088 H 300.2875537725016 193.47812553762606 28.47156295985053 H 0.0 **** 0.06
34089 H 299.3450265838548 192.0612820840151 28.997457827264213 H 0.0 **** 0.06
34090 H 300.5781553484036 192.75972098358687 30.07530792292863 H 0.0 **** 0.06
34091 C 185.27169509252434 65.44920333403095 156.45369701965768 C 0.0 **** -0.24
34092 H 184.44194905146543 66.06956324242086 156.79066502379425 H 0.0 **** 0.06
34093 H 185.66619485898877 65.84681732737798 155.51764392036768 H 0.0 **** 0.06
34094 H 184.9215515647682 64.42859934635311 156.29584466786497 H 0.0 **** 0.06
34095 H 186.05775205059496 65.45088283977415 157.20847777294205 H 0.0 **** 0.06
34096 C 150.21127498731113 312.79900617725264 55.62185659012053 C 0.0 **** -0.24
34097 H 150.32587627551112 313.6615800736801 54.96501249128292 H 0.0 **** 0.06
34098 H 151.1471633341165 312.2406965861087 55.654578986667104 H 0.0 **** 0.06
34099 H 149.41700232895766 312.15591556004495 55.24181349304166 H 0.0 **** 0.06
34100 H 149.95477161536382 313.13920385691955 56.6258281609862 H 0.0 **** 0.06
34101 C 224.1797919168859 107.25935561956106 267.4408735804154 C 0.0 **** -0.24
34102 H 225.0704527096222 106.6322765813255 267.4642311764333 H 0.0 **** 0.06
34103 H 224.3923818798758 108.17102176402125 266.8826570472762 H 0.0 **** 0.06
34104 H 223.88897237156624 107.5164616892121 268.4596688558735 H 0.0 **** 0.06
34105 H 223.36684503697438 106.71849133884842 266.95715408827596 H 0.0 **** 0.06
34106 C 232.33341607967077 303.1417540009634 57.44982003169184 C 0.0 **** -0.24
34107 H 233.1173572594628 303.5553129725617 58.08505822179927 H 0.0 **** 0.06
34108 H 231.59318257822042 303.91316189394234 57.23924089555595 H 0.0 **** 0.06
34109 H 231.85522931207356 302.30681849492555 57.96203040464425 H 0.0 **** 0.06
34110 H 232.77045536253067 302.79222969189254 56.51473620118776 H 0.0 **** 0.06
34111 C 272.9015611596261 115.65674510030439 81.39573660412105 C 0.0 **** -0.24
34112 H 273.35582253491634 115.00262415158312 80.65297235652577 H 0.0 **** 0.06
34113 H 271.927066855593 115.99088892513782 81.03776996928215 H 0.0 **** 0.06
34114 H 273.54469801696035 116.52105589825183 81.56128471513225 H 0.0 **** 0.06
34115 H 272.77756153705604 115.11306352116259 82.33209165555834 H 0.0 **** 0.06
34116 C 138.9568723505135 293.19658567167204 135.7638173654257 C 0.0 **** -0.24
34117 H 139.08713731908185 292.8543059418692 136.79069368549003 H 0.0 **** 0.06
34118 H 138.17906045958696 293.95896043585395 135.730973377638 H 0.0 **** 0.06
34119 H 138.6692873060859 292.35529329111546 135.1338321916048 H 0.0 **** 0.06
34120 H 139.89524756328836 293.6183935475949 135.4000998407326 H 0.0 **** 0.06
34121 C 292.04121753431684 294.64102102200087 45.78703531307241 C 0.0 **** -0.24
34122 H 292.50937301115687 293.94389557325337 46.48228915886247 H 0.0 **** 0.06
34123 H 292.509902244255 294.54505594315106 44.80703240411913 H 0.0 **** 0.06
34124 H 292.170142238832 295.65982099755456 46.153318513864264 H 0.0 **** 0.06
34125 H 290.9780753434338 294.41482390218823 45.706873640104504 H 0.0 **** 0.06
34126 C 102.86157550241583 103.08295003413775 204.12599032270498 C 0.0 **** -0.24
34127 H 101.83472468411114 103.33510991898586 204.39221605939872 H 0.0 **** 0.06
34128 H 102.8873638659446 102.08775769161895 203.6805360400412 H 0.0 **** 0.06
34129 H 103.48303260997656 103.09703245471087 205.02042650895504 H 0.0 **** 0.06
34130 H 103.24003635289583 103.81240464204069 203.4089291565848 H 0.0 **** 0.06
34131 C 6.725050246305102 94.09776261910233 69.88097054112711 C 0.0 **** -0.24
34132 H 7.254649039538663 94.39521944066243 70.78646593644595 H 0.0 **** 0.06
34133 H 6.646554924179441 93.010961280028 69.84684305430335 H 0.0 **** 0.06
34134 H 7.2728411548671374 94.4506022573149 69.00739818675174 H 0.0 **** 0.06
34135 H 5.726233046184802 94.5347102564671 69.88536542786028 H 0.0 **** 0.06
34136 C 64.20188464716273 175.19219121831753 65.538583155386 C 0.0 **** -0.24
34137 H 63.879568025109876 174.71862343211274 64.61172561887767 H 0.0 **** 0.06
34138 H 65.24015842956473 175.5126555768378 65.4402393304758 H 0.0 **** 0.06
34139 H 64.11743498765361 174.48003161840967 66.35939879177099 H 0.0 **** 0.06
34140 H 63.57222594198714 176.05802989697082 65.74185057681012 H 0.0 **** 0.06
34141 C 202.11945144266855 93.65397712381406 202.17499936173937 C 0.0 **** -0.24
34142 H 201.65011857732605 94.63769772176184 202.1438416910609 H 0.0 **** 0.06
34143 H 202.72925817365075 93.57204628155449 203.0747579060481 H 0.0 **** 0.06
34144 H 202.7491096049411 93.5245897765183 201.29564968406987 H 0.0 **** 0.06
34145 H 201.34778959997118 92.88456940213143 202.18657977402063 H 0.0 **** 0.06
34146 C 177.82199838394808 140.19478183979928 124.0034491104175 C 0.0 **** -0.24
34147 H 177.68615178454093 139.11639121341602 124.07954578647386 H 0.0 **** 0.06
34148 H 177.74018369739565 140.64275629578825 124.99398411521634 H 0.0 **** 0.06
34149 H 177.05368416411545 140.611582748984 123.35224513959156 H 0.0 **** 0.06
34150 H 178.80588215498284 140.40827170259078 123.58724105209706 H 0.0 **** 0.06
34151 C 231.78035792691773 104.41877956927388 235.31006228015553 C 0.0 **** -0.24
34152 H 231.4230146292568 103.75891810729544 234.51944671686164 H 0.0 **** 0.06
34153 H 232.456804359096 105.16120968474854 234.88408680247616 H 0.0 **** 0.06
34154 H 232.3096154122042 103.83275589637017 236.06067943548618 H 0.0 **** 0.06
34155 H 230.93286441081105 104.92355552454023 235.77264451094015 H 0.0 **** 0.06
34156 C 313.21045792780285 21.744738438667326 264.9771811454506 C 0.0 **** -0.24
34157 H 313.2613832692009 21.860989123660005 263.89478577595094 H 0.0 **** 0.06
34158 H 313.9068712443997 22.43784085138188 265.4501049153289 H 0.0 **** 0.06
34159 H 313.47500072398327 20.722533383550314 265.24519658901863 H 0.0 **** 0.06
34160 H 312.19649218559715 21.959207832575885 265.31689383151314 H 0.0 **** 0.06
34161 C 158.10977497494264 85.30844125557718 79.94461265536566 C 0.0 **** -0.24
34162 H 157.83731644695786 85.48240361729003 78.9037141028812 H 0.0 **** 0.06
34163 H 157.44936504103845 85.88436184252168 80.59325473598213 H 0.0 **** 0.06
34164 H 159.14137858479268 85.61943045175249 80.10739797064937 H 0.0 **** 0.06
34165 H 158.00950110653145 84.24706627792762 80.17346776646161 H 0.0 **** 0.06
34166 C 132.82701899308927 202.87206087556063 79.44786672037125 C 0.0 **** -0.24
34167 H 131.94797010603227 203.51652399507645 79.47057561331593 H 0.0 **** 0.06
34168 H 133.19555330662158 202.79630129641913 78.42430954027824 H 0.0 **** 0.06
34169 H 132.55821982693516 201.88052669557732 79.81242992343448 H 0.0 **** 0.06
34170 H 133.6040992149321 203.29482564370352 80.0840676525657 H 0.0 **** 0.06
34171 C 266.08161329031753 117.82313244498201 175.34061102975159 C 0.0 **** -0.24
34172 H 266.80491291175565 118.59966491224088 175.59016530519546 H 0.0 **** 0.06
34173 H 266.60661177462447 116.89346049022961 175.12478009885507 H 0.0 **** 0.06
34174 H 265.50848892010026 118.12980326539787 174.46510213870226 H 0.0 **** 0.06
34175 H 265.4051338710435 117.67309837552807 176.18214280228267 H 0.0 **** 0.06
34176 C 65.9338283934971 132.76982367452825 81.6183210218772 C 0.0 **** -0.24
34177 H 66.65695872842147 131.95973315595643 81.52077501749338 H 0.0 **** 0.06
34178 H 66.20603546658248 133.39865862620604 82.46650276338895 H 0.0 **** 0.06
34179 H 64.94063165300852 132.35282057770593 81.77947930979172 H 0.0 **** 0.06
34180 H 65.93371634041574 133.36764731834816 80.70736096545443 H 0.0 **** 0.06
34181 C 66.5311196931159 47.30952119853569 98.98703609264882 C 0.0 **** -0.24
34182 H 67.31025666801463 47.34198052509686 98.22481609760729 H 0.0 **** 0.06
34183 H 66.29525543617956 48.32398402284932 99.30800116691529 H 0.0 **** 0.06
34184 H 66.88257688235876 46.72964235274594 99.84043091223978 H 0.0 **** 0.06
34185 H 65.6381263893523 46.84227893420791 98.57245802562028 H 0.0 **** 0.06
34186 C 301.4777755099243 266.31272406105643 60.41824076547829 C 0.0 **** -0.24
34187 H 301.77809251220265 266.4398598703754 59.37763683551191 H 0.0 **** 0.06
34188 H 300.8603893390059 267.15728868591845 60.72345259046429 H 0.0 **** 0.06
34189 H 302.3654706501559 266.2634371718874 61.04805540962778 H 0.0 **** 0.06
34190 H 300.9073819012323 265.3894856533767 60.52061421966201 H 0.0 **** 0.06
34191 C 94.68218030525676 227.05913530129124 40.476073245185404 C 0.0 **** -0.24
34192 H 94.66687784123494 227.72658173554822 41.33855422969617 H 0.0 **** 0.06
34193 H 93.85787771345753 226.34972208839793 40.55218817418154 H 0.0 **** 0.06
34194 H 95.62742441892374 226.51836491445783 40.45140956438303 H 0.0 **** 0.06
34195 H 94.57484133305792 227.64432023238447 39.562485650220054 H 0.0 **** 0.06
34196 C 186.2850515505521 276.50382559470876 213.7172200801631 C 0.0 **** -0.24
34197 H 187.3342097143559 276.35137596766464 213.96941961648145 H 0.0 **** 0.06
34198 H 186.08527518691665 277.57114605930497 213.62210025858008 H 0.0 **** 0.06
34199 H 185.65773306120627 276.08559961617783 214.50482715017793 H 0.0 **** 0.06
34200 H 186.06164552478066 276.00646336654427 212.77335943800767 H 0.0 **** 0.06
34201 C 230.15485099644542 259.6003915643192 279.80388576004236 C 0.0 **** -0.24
34202 H 229.0974675810135 259.43113275248675 279.5994985808008 H 0.0 **** 0.06
34203 H 230.7203840962481 259.52853442011326 278.8749034064258 H 0.0 **** 0.06
34204 H 230.5136454037805 258.8485074172609 280.5065009825771 H 0.0 **** 0.06
34205 H 230.28694986674208 260.59345531184726 280.23435717080673 H 0.0 **** 0.06
34206 C 55.82095750047603 201.98994600582432 45.05669914995303 C 0.0 **** -0.24
34207 H 56.284080418864306 202.80006003590915 44.492772050301 H 0.0 **** 0.06
34208 H 55.80667380744359 202.24806392464677 46.11581409558838 H 0.0 **** 0.06
34209 H 56.393503067408574 201.07365172051533 44.91336839352178 H 0.0 **** 0.06
34210 H 54.80048108426476 201.84017382049018 44.70553889883874 H 0.0 **** 0.06
34211 C 75.97974735303353 161.91718918499413 133.28848724931277 C 0.0 **** -0.24
34212 H 76.61066823954235 161.99944837822505 132.40380447719315 H 0.0 **** 0.06
34213 H 75.0856938793159 162.52808219859514 133.15420220528821 H 0.0 **** 0.06
34214 H 76.53049707126738 162.26570636040998 134.16206030030625 H 0.0 **** 0.06
34215 H 75.68948285800869 160.87579353733634 133.43249761070996 H 0.0 **** 0.06
34216 C 227.53201139838973 271.925563060326 18.809920184439136 C 0.0 **** -0.24
34217 H 226.9587388717226 271.81936937488604 19.731295170343657 H 0.0 **** 0.06
34218 H 227.2297683803056 272.8386525482023 18.296925939112242 H 0.0 **** 0.06
34219 H 227.3455562541147 271.0663293852336 18.165521766083188 H 0.0 **** 0.06
34220 H 228.59518121248547 271.9771977257033 19.047689324779398 H 0.0 **** 0.06
34221 C 122.02220482643861 177.04437585949597 127.22942950391456 C 0.0 **** -0.24
34222 H 122.03000361925874 178.0012710341017 126.70829789873437 H 0.0 **** 0.06
34223 H 122.08703419925524 176.2346850117745 126.50243484473725 H 0.0 **** 0.06
34224 H 121.09695141175919 176.94917409565545 127.79814920197728 H 0.0 **** 0.06
34225 H 122.8728992169357 176.99350088045844 127.90885509915066 H 0.0 **** 0.06
34226 C 295.78716393624944 137.3881870319307 101.04356285995965 C 0.0 **** -0.24
34227 H 295.62591076408717 136.32618304585864 100.85706808690779 H 0.0 **** 0.06
34228 H 294.99138319549917 137.76876570225372 101.68508156215862 H 0.0 **** 0.06
34229 H 295.77983825188096 137.9278406823191 100.09682180790668 H 0.0 **** 0.06
34230 H 296.74944474501945 137.52925694156772 101.53571149155098 H 0.0 **** 0.06
34231 C 312.9666023002416 284.0096494862318 201.68399049325512 C 0.0 **** -0.24
34232 H 311.94347686304445 284.30071623737183 201.91985238447967 H 0.0 **** 0.06
34233 H 312.9540956211497 283.15022234947713 201.01311052418356 H 0.0 **** 0.06
34234 H 313.489982920965 283.7472678828964 202.6026628852672 H 0.0 **** 0.06
34235 H 313.4776581116914 284.84105334433616 201.199272091581 H 0.0 **** 0.06
34236 C 141.09823642940063 51.08677902791666 215.40731297731006 C 0.0 **** -0.24
34237 H 141.50865333382737 50.70861687739023 216.34291048505975 H 0.0 **** 0.06
34238 H 141.57191488749797 52.036702428919 215.16061356875764 H 0.0 **** 0.06
34239 H 140.02375415169467 51.23319278318331 215.51448197514773 H 0.0 **** 0.06
34240 H 141.28852125782626 50.36769480796633 214.61016749406207 H 0.0 **** 0.06
34241 C 207.8870349757446 242.85235362846325 110.2914187314006 C 0.0 **** -0.24
34242 H 207.26402813575444 242.57976297993596 109.4395489257933 H 0.0 **** 0.06
34243 H 207.2935576611096 243.42414627927673 111.00559461759033 H 0.0 **** 0.06
34244 H 208.7265532904297 243.45757159062123 109.94876939276321 H 0.0 **** 0.06
34245 H 208.26239826738913 241.94838337861108 110.77128281385629 H 0.0 **** 0.06
34246 C 224.7096221403633 8.158804774863611 67.94999382296314 C 0.0 **** -0.24
34247 H 225.76995593687008 8.048975292948597 67.72526494343398 H 0.0 **** 0.06
34248 H 224.4856351043516 9.20856090432008 68.14172079023146 H 0.0 **** 0.06
34249 H 224.46087227085442 7.5667974322251155 68.83166846012438 H 0.0 **** 0.06
34250 H 224.11988487276955 7.8097246281217565 67.10158804603628 H 0.0 **** 0.06
34251 C 303.9399130891702 283.687432086408 153.14626296461563 C 0.0 **** -0.24
34252 H 304.76895338088264 284.2261291132785 152.68854683756314 H 0.0 **** 0.06
34253 H 304.325854679793 282.984293598417 153.88362020540006 H 0.0 **** 0.06
34254 H 303.39104795108443 283.1436481044126 152.37626530297536 H 0.0 **** 0.06
34255 H 303.2716278753598 284.39725223658303 153.63495978538117 H 0.0 **** 0.06
34256 C 143.14597614392835 264.57642916506575 0.9536623528684345 C 0.0 **** -0.24
34257 H 143.1495534301905 264.6149636176257 2.04326441406225 H 0.0 **** 0.06
34258 H 143.87364559600292 263.83839999570836 0.6139279412729337 H 0.0 **** 0.06
34259 H 143.40863058191667 265.5561822522024 0.5546537258529014 H 0.0 **** 0.06
34260 H 142.1524328676208 264.29628974224204 0.6037294855475182 H 0.0 **** 0.06
34261 C 293.73681465104687 92.54999076929647 113.7432018364951 C 0.0 **** -0.24
34262 H 292.8538831178305 91.9320418061335 113.58115451422532 H 0.0 **** 0.06
34263 H 293.4284966144441 93.56889251481888 113.97747426600168 H 0.0 **** 0.06
34264 H 294.34819099033626 92.55259455593546 112.84094270470473 H 0.0 **** 0.06
34265 H 294.31639208544107 92.14505506348138 114.57313341451302 H 0.0 **** 0.06
34266 C 57.78400608053255 220.67628907833506 120.50752892618314 C 0.0 **** -0.24
34267 H 56.74422478661779 220.84294077386377 120.78985573239021 H 0.0 **** 0.06
34268 H 57.9178380069755 219.6337984489404 120.21545246084625 H 0.0 **** 0.06
34269 H 58.43072602544996 220.9024176914446 121.35523023711877 H 0.0 **** 0.06
34270 H 58.041532091303395 221.32477390281224 119.6703496536108 H 0.0 **** 0.06
34271 C 99.10998154930937 33.447560784465566 2.888540543348185 C 0.0 **** -0.24
34272 H 98.95402849717954 32.663920865158474 2.1470403930181163 H 0.0 **** 0.06
34273 H 99.55042333632244 33.01391466165782 3.786925999048819 H 0.0 **** 0.06
34274 H 98.15313761715134 33.90725989296905 3.138628078015003 H 0.0 **** 0.06
34275 H 99.78148667266728 34.203338177287094 2.482569181708058 H 0.0 **** 0.06
34276 C 130.39750156876664 197.83326848313362 96.99594055665054 C 0.0 **** -0.24
34277 H 131.17914126296614 197.27123591946793 96.48510091997073 H 0.0 **** 0.06
34278 H 129.93840784579788 198.53332719937015 96.29777646554922 H 0.0 **** 0.06
34279 H 130.83187642998155 198.38382189511765 97.83089431237755 H 0.0 **** 0.06
34280 H 129.6404414364149 197.14363501140411 97.3709232045378 H 0.0 **** 0.06
34281 C 250.83686286980785 34.07566065601645 256.1116148297858 C 0.0 **** -0.24
34282 H 249.81005935852812 34.38857051604447 256.3010569549058 H 0.0 **** 0.06
34283 H 251.22646080293475 33.55767114836195 256.98817154328225 H 0.0 **** 0.06
34284 H 251.4508704731372 34.95220695415972 255.90494698039467 H 0.0 **** 0.06
34285 H 250.86045821575314 33.405458883083185 255.25277596848764 H 0.0 **** 0.06
34286 C 39.985628605683644 303.8815944128863 249.66294020777264 C 0.0 **** -0.24
34287 H 39.48516908685352 304.028286879019 248.70573336446338 H 0.0 **** 0.06
34288 H 41.0478090572484 304.0991685177241 249.55390102103087 H 0.0 **** 0.06
34289 H 39.85696123579666 302.848072894299 249.9842769904952 H 0.0 **** 0.06
34290 H 39.550541006274614 304.5501656055415 250.40552669393196 H 0.0 **** 0.06
34291 C 221.75572227862114 172.3831867558735 225.9434416204606 C 0.0 **** -0.24
34292 H 221.8242259576395 171.325972121971 225.68492504686148 H 0.0 **** 0.06
34293 H 221.3462358347757 172.9371375272425 225.09835301687653 H 0.0 **** 0.06
34294 H 222.74893792275253 172.76326881022158 226.17994248857212 H 0.0 **** 0.06
34295 H 221.1041288224236 172.50399022296415 226.80856232756702 H 0.0 **** 0.06
34296 C 238.82697159652525 247.2758969393434 285.1355173465178 C 0.0 **** -0.24
34297 H 238.0047440262538 247.01175436193432 284.4699943383924 H 0.0 **** 0.06
34298 H 239.7755289971868 247.06960375169047 284.6382836641509 H 0.0 **** 0.06
34299 H 238.75852342600058 246.6840642345337 286.0485826507698 H 0.0 **** 0.06
34300 H 238.7684815935415 248.33554957825157 285.3826034669249 H 0.0 **** 0.06
34301 C 279.72572732248994 97.2439542575917 10.120997564016037 C 0.0 **** -0.24
34302 H 280.1742445404909 96.543854089555 9.415777447847518 H 0.0 **** 0.06
34303 H 280.2490524129346 97.18181118849355 11.07592135438135 H 0.0 **** 0.06
34304 H 278.6759237973432 96.99153805283339 10.264276872105867 H 0.0 **** 0.06
34305 H 279.80665609808494 98.25662102033257 9.727542477349246 H 0.0 **** 0.06
34306 C 249.56224098084036 292.10225409144374 11.318814720287946 C 0.0 **** -0.24
34307 H 249.29564782497079 291.06973435547013 11.089997237517224 H 0.0 **** 0.06
34308 H 248.68922784279277 292.624244691392 11.710465360419533 H 0.0 **** 0.06
34309 H 249.9047133371685 292.59763427394773 10.410099962266642 H 0.0 **** 0.06
34310 H 250.35825617887448 292.11516408360933 12.062301424731174 H 0.0 **** 0.06
34311 C 10.536244320432473 208.39424247636242 184.8799513573569 C 0.0 **** -0.24
34312 H 9.731714537200418 209.1190001912488 185.01038693183347 H 0.0 **** 0.06
34313 H 11.415618882758778 208.7247265603636 185.43344571394698 H 0.0 **** 0.06
34314 H 10.781981888841315 208.31060774738657 183.82208292406278 H 0.0 **** 0.06
34315 H 10.213594813764587 207.4231477434236 185.25600277329318 H 0.0 **** 0.06
34316 C 138.93556695427466 5.698209064748056 251.18848289140482 C 0.0 **** -0.24
34317 H 139.00537069810053 6.474694896709153 250.42596237025356 H 0.0 **** 0.06
34318 H 139.19443102947437 4.734241308679145 250.749860151266 H 0.0 **** 0.06
34319 H 137.9175598699687 5.660902404520087 251.57553474427604 H 0.0 **** 0.06
34320 H 139.62565431548163 5.925171272909267 252.00018353394577 H 0.0 **** 0.06
34321 C 115.10973962739956 26.1709913384378 209.2678227417892 C 0.0 **** -0.24
34322 H 115.77048674776091 25.306153106588454 209.22305200854555 H 0.0 **** 0.06
34323 H 114.6124390396482 26.198535731403098 210.23730444927227 H 0.0 **** 0.06
34324 H 114.36259507016791 26.0984342188182 208.47749254182645 H 0.0 **** 0.06
34325 H 115.693738645656 27.082147781733653 209.13234418529447 H 0.0 **** 0.06
34326 C 195.73440263168413 258.5204834111728 36.49613231953259 C 0.0 **** -0.24
34327 H 196.1937362363932 259.26729740682117 35.84762029130087 H 0.0 **** 0.06
34328 H 194.65456507991092 258.6677993272733 36.511140051461325 H 0.0 **** 0.06
34329 H 196.12962822582023 258.6250263245927 37.50573315718455 H 0.0 **** 0.06
34330 H 195.95952709420897 257.52414564409554 36.11729280899104 H 0.0 **** 0.06
34331 C 43.29935282731438 289.7904171757991 296.6745885887718 C 0.0 **** -0.24
34332 H 43.7986700495382 289.9253861561008 297.6341077581368 H 0.0 **** 0.06
34333 H 42.37953048800418 290.37470392719473 296.6583958590059 H 0.0 **** 0.06
34334 H 43.064950240490845 288.736004435855 296.53224904376714 H 0.0 **** 0.06
34335 H 43.95752069628057 290.1274072824721 295.8734961621567 H 0.0 **** 0.06
34336 C 102.7291782896435 258.16089574943555 176.3162608940719 C 0.0 **** -0.24
34337 H 102.66578967846354 257.7305444719455 177.31516079246438 H 0.0 **** 0.06
34338 H 101.82730467750508 258.73795718725046 176.11154051041422 H 0.0 **** 0.06
34339 H 102.8231964982287 257.3602261759681 175.58165748606694 H 0.0 **** 0.06
34340 H 103.60122134143654 258.812605906938 176.2561348638386 H 0.0 **** 0.06
34341 C 35.43546268214854 211.18985216466365 255.7679143801063 C 0.0 **** -0.24
34342 H 35.314354764195315 210.16303405603733 255.4248782484585 H 0.0 **** 0.06
34343 H 34.83760001574342 211.85449489328866 255.14444214779144 H 0.0 **** 0.06
34344 H 36.485497501647586 211.474570237657 255.6994830446454 H 0.0 **** 0.06
34345 H 35.105488929552564 211.26786289715537 256.8035644154076 H 0.0 **** 0.06
34346 C 242.43432245753448 152.37307854471675 171.24238388965978 C 0.0 **** -0.24
34347 H 243.14997729797784 152.69083558705307 172.00009290868877 H 0.0 **** 0.06
34348 H 242.6793757255873 152.8445625097492 170.29005037570016 H 0.0 **** 0.06
34349 H 241.42996122321588 152.66669260319514 171.54514557631563 H 0.0 **** 0.06
34350 H 242.47927710723985 151.2889440005153 171.13295480272285 H 0.0 **** 0.06
34351 C 239.02715691486026 171.5311061142101 249.12005547359757 C 0.0 **** -0.24
34352 H 238.54801497552359 171.86632562029592 248.2003934525482 H 0.0 **** 0.06
34353 H 239.7603955832151 172.2722287237417 249.43813986917164 H 0.0 **** 0.06
34354 H 239.52757207848788 170.57852459736569 248.94167252969316 H 0.0 **** 0.06
34355 H 238.2739629137304 171.40581032569645 249.89780100461664 H 0.0 **** 0.06
34356 C 210.98231797801566 84.33516982483835 262.2064213828976 C 0.0 **** -0.24
34357 H 211.93139461950648 84.23379501046915 261.6795295268752 H 0.0 **** 0.06
34358 H 211.1577688882761 84.2942571538945 263.28179131221293 H 0.0 **** 0.06
34359 H 210.31630065880398 83.5228371917353 261.91531491763914 H 0.0 **** 0.06
34360 H 210.5248055682701 85.29078585451467 261.94893788456227 H 0.0 **** 0.06
34361 C 24.435953708335433 280.54761354436687 189.4536389511793 C 0.0 **** -0.24
34362 H 24.29258648848497 280.8472999101866 190.4918765315337 H 0.0 **** 0.06
34363 H 25.28946393119773 279.8725658351306 189.38559306369257 H 0.0 **** 0.06
34364 H 24.620514823419427 281.4308776534467 188.84258326130958 H 0.0 **** 0.06
34365 H 23.54038044390228 280.0388852536929 189.09639056986396 H 0.0 **** 0.06
34366 C 83.98114911271148 133.4812369879806 13.318922994152686 C 0.0 **** -0.24
34367 H 83.12260921326856 133.34103752740867 13.976667403470174 H 0.0 **** 0.06
34368 H 84.88995980907879 133.17712176816806 13.838773360827275 H 0.0 **** 0.06
34369 H 84.0558907340486 134.53230847833464 13.039429230840057 H 0.0 **** 0.06
34370 H 83.85482746456341 132.87550467782506 12.422317421124262 H 0.0 **** 0.06
34371 C 151.00910989228794 106.64409121389264 171.83626095043041 C 0.0 **** -0.24
34372 H 151.57394855958216 106.92536399482947 172.72506534550286 H 0.0 **** 0.06
34373 H 150.124494128427 106.07878836615609 172.13137617466896 H 0.0 **** 0.06
34374 H 151.6337262858537 106.02879694310792 171.18888032825953 H 0.0 **** 0.06
34375 H 150.7052108224877 107.54309757002827 171.29984387587035 H 0.0 **** 0.06
34376 C 307.41633604199535 21.83691136319885 66.75474265282426 C 0.0 **** -0.24
34377 H 306.512007342938 21.236143336574912 66.85493115114821 H 0.0 **** 0.06
34378 H 307.73772445145073 22.174869806797346 67.74062040220733 H 0.0 **** 0.06
34379 H 307.211464303336 22.700710704239214 66.12222338868426 H 0.0 **** 0.06
34380 H 308.2045068116008 21.234411630044747 66.30280542148708 H 0.0 **** 0.06
34381 C 90.15122882834666 259.0287049609003 212.67749839093779 C 0.0 **** -0.24
34382 H 89.77402073055595 260.0092689019999 212.96887917442007 H 0.0 **** 0.06
34383 H 89.99711900864426 258.32311171130556 213.49389760677195 H 0.0 **** 0.06
34384 H 91.21651407054463 259.1019151644511 212.45596064233507 H 0.0 **** 0.06
34385 H 89.61902850970151 258.6831167426532 211.79233120584263 H 0.0 **** 0.06
34386 C 16.806134217139174 28.599247375321283 130.91955176115783 C 0.0 **** -0.24
34387 H 16.809162885637306 27.98029324424266 131.81760352331818 H 0.0 **** 0.06
34388 H 16.240343507555167 29.51153554649352 131.10999996444883 H 0.0 **** 0.06
34389 H 16.344204289357037 28.048529823420495 130.10108596295825 H 0.0 **** 0.06
34390 H 17.830648985370203 28.856375353316253 130.65281961630723 H 0.0 **** 0.06
34391 C 61.90145638477637 104.7589767215988 193.57698393030608 C 0.0 **** -0.24
34392 H 61.67677347812074 105.4390597100246 194.39827381067425 H 0.0 **** 0.06
34393 H 62.46915851249682 105.28845856542779 192.81187111452522 H 0.0 **** 0.06
34394 H 60.9708357639079 104.38783203012088 193.14735591770824 H 0.0 **** 0.06
34395 H 62.48892042455245 103.91988145854617 193.95115968631802 H 0.0 **** 0.06
34396 C 120.50660322728092 202.5189633057513 198.01499092396108 C 0.0 **** -0.24
34397 H 120.69286005588151 201.44622980632528 198.05465927515576 H 0.0 **** 0.06
34398 H 120.47003884587863 202.84304410452285 196.97448670199572 H 0.0 **** 0.06
34399 H 121.30657145555202 203.0469156470155 198.53257811680243 H 0.0 **** 0.06
34400 H 119.55402796644034 202.73950487159175 198.4975467691192 H 0.0 **** 0.06
34401 C 213.88980413622212 226.81143587892495 303.400664438725 C 0.0 **** -0.24
34402 H 214.11531385866613 226.91592101025753 304.462117958171 H 0.0 **** 0.06
34403 H 214.5086477871755 226.02141709359063 302.9750246788657 H 0.0 **** 0.06
34404 H 214.09749648683572 227.7523117301575 302.8914504678701 H 0.0 **** 0.06
34405 H 212.83739246469946 226.55518993481056 303.27607694880413 H 0.0 **** 0.06
34406 C 208.8097682762645 271.9281001246935 300.1303600226511 C 0.0 **** -0.24
34407 H 209.46924541327735 271.6480303248784 300.951960390326 H 0.0 **** 0.06
34408 H 209.08128110900458 272.9207493094299 299.7695127794107 H 0.0 **** 0.06
34409 H 207.77830674743595 271.93736121824594 300.4801666675325 H 0.0 **** 0.06
34410 H 208.91312647224132 271.2055338552493 299.3201752138581 H 0.0 **** 0.06
34411 C 179.13343124444236 145.3181084531037 103.11570354177698 C 0.0 **** -0.24
34412 H 179.39185353074475 144.6944653226202 102.25905044729791 H 0.0 **** 0.06
34413 H 178.07661060686655 145.19431115773486 103.34876300293303 H 0.0 **** 0.06
34414 H 179.33379668231674 146.36260416616227 102.8773492972712 H 0.0 **** 0.06
34415 H 179.73325660437757 145.02092888709865 103.97546699148424 H 0.0 **** 0.06
34416 C 202.33836125612504 102.45084425979647 172.94831488277987 C 0.0 **** -0.24
34417 H 202.39319121643803 102.31506126346201 171.86814637566067 H 0.0 **** 0.06
34418 H 201.7311534636009 101.65566729561533 173.38313973393434 H 0.0 **** 0.06
34419 H 201.8853065075793 103.4166167632429 173.17002688510627 H 0.0 **** 0.06
34420 H 203.34259572848896 102.41391425254949 173.37050399797084 H 0.0 **** 0.06
34421 C 9.094229119261186 163.3027906902126 68.15881556682919 C 0.0 **** -0.24
34422 H 8.110958023576885 162.84253904323236 68.25966063131594 H 0.0 **** 0.06
34423 H 9.753202165925217 162.63310253165332 67.6070115798895 H 0.0 **** 0.06
34424 H 9.509998091615415 163.4906345306007 69.14793952066435 H 0.0 **** 0.06
34425 H 8.998842215164231 164.24588950194698 67.61983845789814 H 0.0 **** 0.06
34426 C 60.58239915402726 161.64551320012697 237.62234798985364 C 0.0 **** -0.24
34427 H 59.958453008369844 160.8684548986938 238.064458785505 H 0.0 **** 0.06
34428 H 60.285297084753495 161.8026213010312 236.5850665629398 H 0.0 **** 0.06
34429 H 61.62727632131791 161.337052439903 237.6577741797201 H 0.0 **** 0.06
34430 H 60.45731096265939 162.57279720488805 238.1806280850383 H 0.0 **** 0.06
34431 C 169.45076864462573 73.40251015410377 123.00513764621252 C 0.0 **** -0.24
34432 H 168.62249567665452 74.04863686440922 122.71235185451692 H 0.0 **** 0.06
34433 H 169.06297236494441 72.53012630849705 123.53060869097669 H 0.0 **** 0.06
34434 H 170.12550244271478 73.952285194599 123.66077859465014 H 0.0 **** 0.06
34435 H 169.99069919720824 73.08030069784692 122.1145061754425 H 0.0 **** 0.06
34436 C 166.33507611589442 211.74254032175912 244.98958676177637 C 0.0 **** -0.24
34437 H 166.615954710785 212.47572015210267 245.7450759392168 H 0.0 **** 0.06
34438 H 166.59439189293403 212.12100580126895 244.000729057392 H 0.0 **** 0.06
34439 H 165.2618872544533 211.5625344453651 245.04021181254828 H 0.0 **** 0.06
34440 H 166.8689686811823 210.80989233271237 245.17275010046427 H 0.0 **** 0.06
34441 C 184.56850099760766 122.50391318502133 125.18124723306389 C 0.0 **** -0.24
34442 H 185.04028040304843 123.00301204392795 124.33492408506288 H 0.0 **** 0.06
34443 H 184.51448581729176 123.19221524406794 126.0245295015823 H 0.0 **** 0.06
34444 H 185.15776410142007 121.63073514425633 125.46182423651695 H 0.0 **** 0.06
34445 H 183.56311253638864 122.18944255049263 124.90320837416306 H 0.0 **** 0.06
34446 C 306.79990422720215 96.69381009776248 113.36681988076967 C 0.0 **** -0.24
34447 H 307.2186920210139 96.17214379568685 114.22706077750269 H 0.0 **** 0.06
34448 H 305.94851484367683 96.13174153937615 112.9819596375159 H 0.0 **** 0.06
34449 H 307.55950253831764 96.78153346050286 112.590679195897 H 0.0 **** 0.06
34450 H 306.47188451455963 97.68798893963145 113.66884280109934 H 0.0 **** 0.06
34451 C 288.7570255186394 35.572038093313296 147.1790605084561 C 0.0 **** -0.24
34452 H 289.19836517747683 36.1225761030025 146.3476842039614 H 0.0 **** 0.06
34453 H 288.18697966291035 34.726350975332764 146.79268196770167 H 0.0 **** 0.06
34454 H 288.0947204740067 36.23058759027799 147.7397029357902 H 0.0 **** 0.06
34455 H 289.5488166612731 35.20833161749212 147.83465698493876 H 0.0 **** 0.06
34456 C 132.9480308293672 106.5766755857932 112.80382002166229 C 0.0 **** -0.24
34457 H 133.32856241674793 106.54013839026499 113.82381026042003 H 0.0 **** 0.06
34458 H 133.66488895627987 106.10460811030651 112.13098714462731 H 0.0 **** 0.06
34459 H 132.80117272077473 107.6154588125693 112.50796287040188 H 0.0 **** 0.06
34460 H 131.99673701780125 106.04647363454566 112.75132880159609 H 0.0 **** 0.06
34461 C 199.11158045692082 268.19431230712104 23.963358321844908 C 0.0 **** -0.24
34462 H 198.3097419851773 268.19532289413894 23.22541429198384 H 0.0 **** 0.06
34463 H 199.98141062476742 268.7107906601074 23.556166788655617 H 0.0 **** 0.06
34464 H 199.38105544188568 267.1660411552148 24.206751061079103 H 0.0 **** 0.06
34465 H 198.77539057439037 268.7053767129145 24.865639811706473 H 0.0 **** 0.06
34466 C 30.18280207713576 129.204553816737 208.9755146614394 C 0.0 **** -0.24
34467 H 29.88040092616734 128.45776106994052 208.2408382083413 H 0.0 **** 0.06
34468 H 31.00761641499264 129.7952577200978 208.574896933481 H 0.0 **** 0.06
34469 H 30.503641469554623 128.70561755214084 209.8903671311645 H 0.0 **** 0.06
34470 H 29.339549497828443 129.85957892476864 209.19595637277087 H 0.0 **** 0.06
34471 C 143.79129628002735 176.50729566466708 295.25884131229475 C 0.0 **** -0.24
34472 H 144.55344856356135 177.28523046753372 295.1985445768753 H 0.0 **** 0.06
34473 H 144.2696160511213 175.52792819056884 295.21759929276385 H 0.0 **** 0.06
34474 H 143.10053886190727 176.60964520282977 294.4230200976757 H 0.0 **** 0.06
34475 H 143.24522068175273 176.60665300699014 296.19702728008644 H 0.0 **** 0.06
34476 C 55.10484540947505 41.72677886299459 184.6704576253731 C 0.0 **** -0.24
34477 H 54.44159610472218 41.297297735895995 185.42192996384176 H 0.0 **** 0.06
34478 H 56.08477537400057 41.908083074672675 185.113708574793 H 0.0 **** 0.06
34479 H 54.68686247768164 42.66823830782971 184.31374242623355 H 0.0 **** 0.06
34480 H 55.204835206397604 41.03380464826682 183.83579354764504 H 0.0 **** 0.06
34481 C 79.97602605863864 191.08602929774935 257.868271355253 C 0.0 **** -0.24
34482 H 79.006121013741 191.52922155006087 258.09663988778345 H 0.0 **** 0.06
34483 H 80.7496108837513 191.8503151553237 257.93988137110955 H 0.0 **** 0.06
34484 H 79.95961145330955 190.67740655111248 256.85718215637263 H 0.0 **** 0.06
34485 H 80.18639746840239 190.28700350135017 258.57876132270206 H 0.0 **** 0.06
34486 C 282.7733805728731 33.42955138925129 226.85076052983965 C 0.0 **** -0.24
34487 H 282.61187990186534 32.75429060718966 227.6903406357527 H 0.0 **** 0.06
34488 H 283.6955930042783 33.15661603481283 226.33733198004563 H 0.0 **** 0.06
34489 H 282.8500635243281 34.45306899589286 227.2168886237656 H 0.0 **** 0.06
34490 H 281.9351829896423 33.354462438798464 226.15696386112205 H 0.0 **** 0.06
34491 C 61.280453029645514 201.64371881928253 248.29739540544784 C 0.0 **** -0.24
34492 H 62.24013509628591 201.21284338115612 248.58415321475852 H 0.0 **** 0.06
34493 H 60.626632669786005 201.68548865070028 249.1683934347689 H 0.0 **** 0.06
34494 H 60.82049548781055 201.02451960043362 247.5274825952091 H 0.0 **** 0.06
34495 H 61.43525947161555 202.65080093106735 247.9095566015331 H 0.0 **** 0.06
34496 C 148.0288018921249 146.11286723958534 246.27426911071495 C 0.0 **** -0.24
34497 H 147.82569592240304 146.8189877687654 245.46919078355913 H 0.0 **** 0.06
34498 H 149.10577423610158 145.98553432679802 246.38215909108746 H 0.0 **** 0.06
34499 H 147.56972042216498 145.15287271806898 246.0394498828808 H 0.0 **** 0.06
34500 H 147.61239494578473 146.49654487178628 247.20679100803235 H 0.0 **** 0.06
34501 C 7.411583810170399 258.9842763235441 277.9280545359086 C 0.0 **** -0.24
34502 H 7.018748467055957 259.14396393382583 278.9324949836438 H 0.0 **** 0.06
34503 H 6.713025424184536 258.3694095594844 277.35844027644424 H 0.0 **** 0.06
34504 H 8.373935269656513 258.47627788812133 277.991628182361 H 0.0 **** 0.06
34505 H 7.539063205905251 259.94591275545565 277.43074203115555 H 0.0 **** 0.06
34506 C 5.801839818936514 215.6910733755821 171.4150319536675 C 0.0 **** -0.24
34507 H 5.969621306799098 216.1395106753434 172.39441732827004 H 0.0 **** 0.06
34508 H 5.81082734772292 216.47022836611455 170.6527019228198 H 0.0 **** 0.06
34509 H 4.836786147666373 215.18556414085094 171.40816392880794 H 0.0 **** 0.06
34510 H 6.59174396965598 214.96938988114087 171.2073381511296 H 0.0 **** 0.06
34511 C 80.89644807659806 291.0895316880559 20.81836586519995 C 0.0 **** -0.24
34512 H 80.80116396444234 292.14902709316084 20.583028300244763 H 0.0 **** 0.06
34513 H 81.10785494988275 290.5312894948623 19.906199685805092 H 0.0 **** 0.06
34514 H 79.96555528943185 290.7301500383577 21.25664636587257 H 0.0 **** 0.06
34515 H 81.71130950810243 290.94712810258136 21.528896245173087 H 0.0 **** 0.06
34516 C 113.53932753188914 123.77047105931032 225.75838790479457 C 0.0 **** -0.24
34517 H 112.51081455184712 123.44553584649407 225.91198967042013 H 0.0 **** 0.06
34518 H 113.96176167612401 124.09889620396208 226.70902225969556 H 0.0 **** 0.06
34519 H 113.55675327684395 124.596557078725 225.04793552848196 H 0.0 **** 0.06
34520 H 114.12830976809275 122.94058864580478 225.36594496378387 H 0.0 **** 0.06
34521 C 107.4658192883094 61.383410370516685 251.07232503086658 C 0.0 **** -0.24
34522 H 107.9162447402087 62.351453524385875 250.8531613611735 H 0.0 **** 0.06
34523 H 108.15318741717783 60.588002306692715 250.78175933433238 H 0.0 **** 0.06
34524 H 106.53554605907433 61.281086517992094 250.5135971025309 H 0.0 **** 0.06
34525 H 107.25871852844585 61.311975126099185 252.14003361965757 H 0.0 **** 0.06
34526 C 270.2552250174925 256.43059053672386 230.83948461708792 C 0.0 **** -0.24
34527 H 271.03308061888936 256.8920926208872 230.23028198705185 H 0.0 **** 0.06
34528 H 270.71720872593147 255.7911778143054 231.59281374904293 H 0.0 **** 0.06
34529 H 269.604099607654 255.8311639261456 230.2036955117697 H 0.0 **** 0.06
34530 H 269.66980534649923 257.20767647566686 231.33085576184595 H 0.0 **** 0.06
34531 C 47.6740251057125 289.4688103598436 27.06560168618745 C 0.0 **** -0.24
34532 H 47.6716845548913 288.76533109915584 26.233285160183073 H 0.0 **** 0.06
34533 H 48.093969277097415 290.4195591604638 26.736515127505328 H 0.0 **** 0.06
34534 H 48.27788370570687 289.06651315149475 27.879436497754824 H 0.0 **** 0.06
34535 H 46.652170487473086 289.62262323839207 27.41377849742574 H 0.0 **** 0.06
34536 C 232.0248792062195 23.284377238841614 295.3301031237765 C 0.0 **** -0.24
34537 H 233.08950960775942 23.076910415813813 295.2200805007597 H 0.0 **** 0.06
34538 H 231.70997234844214 23.98596559879536 294.5583533009481 H 0.0 **** 0.06
34539 H 231.8403798870264 23.718720862712985 296.3129764474588 H 0.0 **** 0.06
34540 H 231.46194355839873 22.356371152997667 295.23135845394916 H 0.0 **** 0.06
34541 C 280.42643885651137 15.78888807346462 218.1267005501947 C 0.0 **** -0.24
34542 H 279.5615336941444 15.294125223324087 218.56820721007452 H 0.0 **** 0.06
34543 H 281.33673678736096 15.275118024537306 218.43868512051122 H 0.0 **** 0.06
34544 H 280.4617479614036 16.825552771732433 218.461552637191 H 0.0 **** 0.06
34545 H 280.34668454837316 15.760843999179187 217.03980445032175 H 0.0 **** 0.06
34546 C 88.60604702195977 78.26609998226226 113.88454980764448 C 0.0 **** -0.24
34547 H 88.00597871408726 77.73617556832752 114.62396139074474 H 0.0 **** 0.06
34548 H 88.01063632938954 79.06345823815485 113.43818641832814 H 0.0 **** 0.06
34549 H 88.92296110700454 77.57020690423838 113.10769098064281 H 0.0 **** 0.06
34550 H 89.48312899703072 78.69545190775219 114.36829713930194 H 0.0 **** 0.06
34551 C 3.1931579735406643 34.26110010989362 266.245225289123 C 0.0 **** -0.24
34552 H 2.923273088868612 33.232664289183646 266.4857440261074 H 0.0 **** 0.06
34553 H 3.8741420502367845 34.268037309116096 265.39406495568966 H 0.0 **** 0.06
34554 H 3.680397906227469 34.71875265853731 267.1055041609837 H 0.0 **** 0.06
34555 H 2.2930826497085803 34.82262203271853 265.9948238279826 H 0.0 **** 0.06
34556 C 42.690590454875235 101.34006557817625 191.60510707159796 C 0.0 **** -0.24
34557 H 41.84906237902115 100.75607589479242 191.2329808895833 H 0.0 **** 0.06
34558 H 42.650171299517524 101.38157911322432 192.69314165931064 H 0.0 **** 0.06
34559 H 42.63760254203032 102.3514928851344 191.2009605160169 H 0.0 **** 0.06
34560 H 43.62398040593041 100.8723768289396 191.29320840356445 H 0.0 **** 0.06
34561 C 145.28548831448188 156.0290530352633 67.33317598467312 C 0.0 **** -0.24
34562 H 144.60462685472774 156.3986694862288 66.56596955557208 H 0.0 **** 0.06
34563 H 146.1600678998869 155.58433607782143 66.85803208231616 H 0.0 **** 0.06
34564 H 144.77739062877808 155.27835610733695 67.93812657124849 H 0.0 **** 0.06
34565 H 145.59851123868495 156.85731962146917 67.96882562153712 H 0.0 **** 0.06
34566 C 128.65761167988896 170.40437748658775 117.19822230154426 C 0.0 **** -0.24
34567 H 128.70105766981274 171.35003180722572 116.65820220907679 H 0.0 **** 0.06
34568 H 128.56802850188183 169.58418450486232 116.48592975147281 H 0.0 **** 0.06
34569 H 127.79338708862505 170.40431095633335 117.86284716088741 H 0.0 **** 0.06
34570 H 129.567303900335 170.27792440988316 117.78525299370739 H 0.0 **** 0.06
34571 C 99.16103826854791 282.40452405267126 43.045402889915636 C 0.0 **** -0.24
34572 H 99.30388132387321 282.7240883267065 44.0776150220517 H 0.0 **** 0.06
34573 H 98.49981296998007 281.5377753316711 43.021778468266575 H 0.0 **** 0.06
34574 H 100.12413946814368 282.13772701640505 42.61118662231098 H 0.0 **** 0.06
34575 H 98.71559456564918 283.2173973495941 42.47152811045703 H 0.0 **** 0.06
34576 C 144.50515592421937 84.54870835498423 52.27592049901554 C 0.0 **** -0.24
34577 H 145.5158370124202 84.4296287803071 52.667454848249406 H 0.0 **** 0.06
34578 H 144.53759942405077 85.14014731562952 51.36080918016046 H 0.0 **** 0.06
34579 H 143.8868218726726 85.05662505685399 53.01543991766633 H 0.0 **** 0.06
34580 H 144.0811814678168 83.5674284401083 52.060549323634916 H 0.0 **** 0.06
34581 C 290.2037782039174 109.34626821982602 73.46795979227721 C 0.0 **** -0.24
34582 H 289.79199860857574 108.41695842000985 73.86074498531696 H 0.0 **** 0.06
34583 H 290.88966297685806 109.776266114131 74.19730966402076 H 0.0 **** 0.06
34584 H 289.39311848789384 110.04829661112606 73.27271555367938 H 0.0 **** 0.06
34585 H 290.7387160779639 109.14243542106408 72.54069445354662 H 0.0 **** 0.06
34586 C 306.9297685570489 165.31033731517311 222.01023073643464 C 0.0 **** -0.24
34587 H 306.6190360894645 165.4665718172643 220.97686271530767 H 0.0 **** 0.06
34588 H 306.64305249842414 164.3065649022114 222.32670064467544 H 0.0 **** 0.06
34589 H 306.44450372726214 166.04609335553744 222.65001228910802 H 0.0 **** 0.06
34590 H 308.01168901828316 165.42053110720207 222.0840534557757 H 0.0 **** 0.06
34591 C 250.35470229773608 200.65340953560593 212.2508824600257 C 0.0 **** -0.24
34592 H 249.2876187233176 200.80898456464672 212.09306799928714 H 0.0 **** 0.06
34593 H 250.54450271269002 200.48321349663854 213.31093503581891 H 0.0 **** 0.06
34594 H 250.9034776918336 201.53501021714868 211.91933886417982 H 0.0 **** 0.06
34595 H 250.68274841586646 199.78520059055563 211.67837802613172 H 0.0 **** 0.06
34596 C 304.88290519027805 53.39171451222654 313.4848417472154 C 0.0 **** -0.24
34597 H 304.40421232992065 54.22333976644785 314.00241969721003 H 0.0 **** 0.06
34598 H 304.6524673855292 52.46024192341508 314.00325527968624 H 0.0 **** 0.06
34599 H 305.96224935434014 53.544763487103296 313.47486484594754 H 0.0 **** 0.06
34600 H 304.5135559542285 53.33982017306812 312.46042216943613 H 0.0 **** 0.06
34601 C 10.507468027083291 125.4341431141545 184.9817158591839 C 0.0 **** -0.24
34602 H 10.891076043279043 126.45258591632492 184.91848216716846 H 0.0 **** 0.06
34603 H 9.429023556630739 125.46175228548606 185.13552939848466 H 0.0 **** 0.06
34604 H 10.982170931043697 124.91966005967362 185.81723646915742 H 0.0 **** 0.06
34605 H 10.730023544240566 124.90434306524946 184.0556876207886 H 0.0 **** 0.06
34606 C 129.89273051677378 34.90104692705836 302.28063710153697 C 0.0 **** -0.24
34607 H 130.53885362838741 35.717569646621484 301.95624701395656 H 0.0 **** 0.06
34608 H 130.41558829164148 33.95240902785869 302.15221108785215 H 0.0 **** 0.06
34609 H 128.98175537379998 34.89874028704958 301.6825925248563 H 0.0 **** 0.06
34610 H 129.63770468345527 35.035728623002115 303.3312683451759 H 0.0 **** 0.06
34611 C 37.53055858157222 151.53519910404736 62.83587846378725 C 0.0 **** -0.24
34612 H 37.561600714937015 150.74979663385125 62.080216701453935 H 0.0 **** 0.06
34613 H 37.71494059160614 151.09986732857345 63.818794470614876 H 0.0 **** 0.06
34614 H 36.54999358196312 152.01021020098506 62.82633459874512 H 0.0 **** 0.06
34615 H 38.29639575824464 152.27861418366854 62.61773451564352 H 0.0 **** 0.06
34616 C 100.0064879579852 74.0750508481388 218.41376721336596 C 0.0 **** -0.24
34617 H 99.6896554841693 75.04978146934837 218.0432314551748 H 0.0 **** 0.06
34618 H 100.65398643426715 73.59921088248535 217.67781517916643 H 0.0 **** 0.06
34619 H 99.13013150238541 73.45043772052352 218.58695541629277 H 0.0 **** 0.06
34620 H 100.55115240716685 74.20250997656476 219.34928747414273 H 0.0 **** 0.06
34621 C 37.01627014625174 161.8630679614127 20.214128860909923 C 0.0 **** -0.24
34622 H 36.170569964919565 162.53894206632435 20.337176588565782 H 0.0 **** 0.06
34623 H 37.94666734269401 162.42807679232095 20.277124345836825 H 0.0 **** 0.06
34624 H 36.952418811908956 161.37480525228028 19.24134579825659 H 0.0 **** 0.06
34625 H 36.99537283559172 161.10871649668218 21.0008559555545 H 0.0 **** 0.06
34626 C 164.42247256572227 159.5048953301706 138.15911991796654 C 0.0 **** -0.24
34627 H 164.3239063484113 160.43363086130552 138.72206429245404 H 0.0 **** 0.06
34628 H 165.30871120965605 158.96801460395648 138.49756120121916 H 0.0 **** 0.06
34629 H 164.51755375633354 159.73165407618563 137.09713950903273 H 0.0 **** 0.06
34630 H 163.538355769847 158.88733874665576 138.3211375487676 H 0.0 **** 0.06
34631 C 28.975326337085107 17.15042382880634 205.35758724579216 C 0.0 **** -0.24
34632 H 29.38406720240576 17.103125169580494 204.34859760834348 H 0.0 **** 0.06
34633 H 27.894432783876482 17.019541245094004 205.31816363663796 H 0.0 **** 0.06
34634 H 29.208929215638847 18.119544818775168 205.79831000606634 H 0.0 **** 0.06
34635 H 29.415945396998154 16.35967453205474 205.96445192751435 H 0.0 **** 0.06
34636 C 301.0257215131825 158.37620229159575 256.8351557313376 C 0.0 **** -0.24
34637 H 300.0191860468177 158.78384554715387 256.7385913311645 H 0.0 **** 0.06
34638 H 301.13986043196314 157.91881269709256 257.81843871217046 H 0.0 **** 0.06
34639 H 301.7545806050674 159.17795324914943 256.71974701055046 H 0.0 **** 0.06
34640 H 301.18833258959285 157.6238918776438 256.0636260644495 H 0.0 **** 0.06
34641 C 5.755092575275867 197.8661212896668 110.05730746198321 C 0.0 **** -0.24
34642 H 5.058519847091318 197.07541400887658 109.77775105879891 H 0.0 **** 0.06
34643 H 5.458343035162073 198.7976693927149 109.57536017010474 H 0.0 **** 0.06
34644 H 6.760759714730597 197.5940854648157 109.73496529931026 H 0.0 **** 0.06
34645 H 5.743022498032019 197.99576848190753 111.13956310151627 H 0.0 **** 0.06
34646 C 190.15997941088983 230.27395282148433 287.2146520679031 C 0.0 **** -0.24
34647 H 190.73137653239644 229.50484168925027 287.73465278637576 H 0.0 **** 0.06
34648 H 190.55105654515535 230.395152010711 286.204262151386 H 0.0 **** 0.06
34649 H 190.24729223195095 231.2178763303463 287.75317247881156 H 0.0 **** 0.06
34650 H 189.1124058942779 229.9781287988359 287.1662659016952 H 0.0 **** 0.06
34651 C 109.99662382299618 247.7609589984217 160.65137358208216 C 0.0 **** -0.24
34652 H 109.92706794950757 246.73614712083918 160.28805286788696 H 0.0 **** 0.06
34653 H 109.38784989026817 248.41177594211655 160.0233847632847 H 0.0 **** 0.06
34654 H 111.0358121130972 248.0894586963367 160.6146312229493 H 0.0 **** 0.06
34655 H 109.63714354191978 247.80651312408185 161.67911386863926 H 0.0 **** 0.06
34656 C 96.56782564490186 93.90891331735116 218.21366476875932 C 0.0 **** -0.24
34657 H 96.50563280953577 94.717478945626 217.4854381383048 H 0.0 **** 0.06
34658 H 95.64688551755214 93.32567369602222 218.1879902727645 H 0.0 **** 0.06
34659 H 96.7038260735244 94.32855448358211 219.21080895517997 H 0.0 **** 0.06
34660 H 97.41342757078587 93.26530121646579 217.9713278214243 H 0.0 **** 0.06
34661 C 154.6075652993942 135.8663383146769 122.96048768420252 C 0.0 **** -0.24
34662 H 154.17216707976974 135.07469360274013 122.35051933142037 H 0.0 **** 0.06
34663 H 154.87781775115724 135.46476568520876 123.93716490106468 H 0.0 **** 0.06
34664 H 153.8811621560314 136.6695819452984 123.08489224272873 H 0.0 **** 0.06
34665 H 155.49968445773578 136.25449253811004 122.46783662996779 H 0.0 **** 0.06
34666 C 295.1865038277144 5.489336159960814 256.4748782681759 C 0.0 **** -0.24
34667 H 294.50897390797314 6.064323283813167 257.1055044346138 H 0.0 **** 0.06
34668 H 296.00880722503314 5.106638340734037 257.0803283956408 H 0.0 **** 0.06
34669 H 295.58291434996886 6.130837726503245 255.6873563374936 H 0.0 **** 0.06
34670 H 294.64699770361926 4.6552291003951325 256.0266150602703 H 0.0 **** 0.06
34671 C 155.20305270674817 282.1715741208157 138.86731388150687 C 0.0 **** -0.24
34672 H 155.91266271100812 282.99923165986354 138.88142036314994 H 0.0 **** 0.06
34673 H 155.175249575213 281.7347354694357 137.8686526115138 H 0.0 **** 0.06
34674 H 154.21162354542184 282.53927228639577 139.13088858591496 H 0.0 **** 0.06
34675 H 155.51377062155768 281.41473578085333 139.58688628937242 H 0.0 **** 0.06
34676 C 89.73791092304995 179.93105803542466 125.11645219957435 C 0.0 **** -0.24
34677 H 89.31865166956422 179.93947623621222 124.11060421908826 H 0.0 **** 0.06
34678 H 90.75207185379242 179.5316293522643 125.08450399154714 H 0.0 **** 0.06
34679 H 89.12112681236229 179.30604124696043 125.76190531403941 H 0.0 **** 0.06
34680 H 89.76015168585118 180.94800700097989 125.50864666873645 H 0.0 **** 0.06
34681 C 238.27488082046588 35.44020184625714 119.64987875143348 C 0.0 **** -0.24
34682 H 237.42392551019066 36.00698382287075 120.02981638858276 H 0.0 **** 0.06
34683 H 239.1940140697851 35.827725640485454 120.0897852535756 H 0.0 **** 0.06
34684 H 238.3210214430076 35.538524282666316 118.56516768727587 H 0.0 **** 0.06
34685 H 238.15816717993016 34.38961181768133 119.91507653811391 H 0.0 **** 0.06
34686 C 123.27910816705162 126.60772345905326 155.1716574458561 C 0.0 **** -0.24
34687 H 122.36369063045805 127.01760057138935 155.59968996957957 H 0.0 **** 0.06
34688 H 123.2207143452469 126.6461491926689 154.08393322796456 H 0.0 **** 0.06
34689 H 123.39719309955257 125.57218337665768 155.4924050743748 H 0.0 **** 0.06
34690 H 124.13274204781186 127.1936356393675 155.51229429667478 H 0.0 **** 0.06
34691 C 64.1028052936571 164.3725169018881 86.03596139834053 C 0.0 **** -0.24
34692 H 64.09654236714957 165.04570439539566 86.893251153654 H 0.0 **** 0.06
34693 H 65.00417881293663 163.76051761153087 86.06106110423036 H 0.0 **** 0.06
34694 H 64.08684197559526 164.95678205570312 85.11603001420463 H 0.0 **** 0.06
34695 H 63.2243943481177 163.72893202931402 86.07210096167239 H 0.0 **** 0.06
34696 C 230.95312641934842 90.00650784383643 311.33390045428786 C 0.0 **** -0.24
34697 H 231.11133119674452 89.82881654742164 312.39838314970433 H 0.0 **** 0.06
34698 H 230.4949337965176 89.12601155932768 310.88277611876055 H 0.0 **** 0.06
34699 H 231.911028097722 90.20418645222796 310.8531771547737 H 0.0 **** 0.06
34700 H 230.29599668867178 90.86539711876259 311.2036657696822 H 0.0 **** 0.06
34701 C 217.63199126780717 201.67882344688513 59.409002173477944 C 0.0 **** -0.24
34702 H 218.46960797095952 201.1348994517374 58.97214945583414 H 0.0 **** 0.06
34703 H 217.96519097809522 202.67131813575133 59.716180633077585 H 0.0 **** 0.06
34704 H 217.25821293139296 201.1352374641541 60.27603641693807 H 0.0 **** 0.06
34705 H 216.8371475259969 201.77573987027796 58.66928196687155 H 0.0 **** 0.06
34706 C 312.0770235753788 36.766760448417216 256.0413500217811 C 0.0 **** -0.24
34707 H 311.1020000311124 36.53622293555938 256.4714475646531 H 0.0 **** 0.06
34708 H 312.6820175642362 37.29806173210369 256.7769447302833 H 0.0 **** 0.06
34709 H 311.9457065083427 37.39134939420501 255.1587924778415 H 0.0 **** 0.06
34710 H 312.57829407907457 35.84089733684891 255.75986870977366 H 0.0 **** 0.06
34711 C 91.81048005355271 100.90273428621003 264.2675808816716 C 0.0 **** -0.24
34712 H 92.61577724377614 100.26718798024137 264.63530044363216 H 0.0 **** 0.06
34713 H 90.961746685175 100.28289542855327 263.97766570076516 H 0.0 **** 0.06
34714 H 92.1598970336693 101.46822899558606 263.40440891016675 H 0.0 **** 0.06
34715 H 91.50463975497112 101.59252285663979 265.0543519989277 H 0.0 **** 0.06
34716 C 18.736332903816077 89.62419285318205 178.35265973498298 C 0.0 **** -0.24
34717 H 18.735997394780767 88.69351648278828 177.78617608448434 H 0.0 **** 0.06
34718 H 19.692829166775383 89.7389138795177 178.8627286867099 H 0.0 **** 0.06
34719 H 17.93192710592156 89.60160993651871 179.08807028393045 H 0.0 **** 0.06
34720 H 18.582924325798942 90.46286945856198 177.67316748921286 H 0.0 **** 0.06
34721 C 15.747469633093885 114.47905055609667 291.31901082462775 C 0.0 **** -0.24
34722 H 16.345044649434968 114.31471899680525 290.4223873874477 H 0.0 **** 0.06
34723 H 15.03683098440439 115.2863645198529 291.1384776407082 H 0.0 **** 0.06
34724 H 16.403282857200736 114.75016946821674 292.1470228447474 H 0.0 **** 0.06
34725 H 15.205676194371733 113.56696496904752 291.568004998467 H 0.0 **** 0.06
34726 C 26.988150485976576 103.0637766116732 116.91531669935387 C 0.0 **** -0.24
34727 H 26.04056105652046 102.73457676499444 117.3405367360449 H 0.0 **** 0.06
34728 H 26.94010331723939 104.13197377966682 116.70476117713028 H 0.0 **** 0.06
34729 H 27.1804288276536 102.51837381772677 115.99133067024312 H 0.0 **** 0.06
34730 H 27.79182533984425 102.86906906353386 117.62655158102814 H 0.0 **** 0.06
34731 C 165.19858047237534 281.02038341389834 169.3398105773523 C 0.0 **** -0.24
34732 H 165.44285201380632 281.00727632778273 170.40181997772942 H 0.0 **** 0.06
34733 H 164.15429042589642 281.30675659755036 169.21044267643708 H 0.0 **** 0.06
34734 H 165.35835637571114 280.02770700932933 168.91782411958246 H 0.0 **** 0.06
34735 H 165.83903649579224 281.73943216256566 168.82824793925914 H 0.0 **** 0.06
34736 C 90.4355390789895 13.400680613640816 200.29530965233278 C 0.0 **** -0.24
34737 H 91.5026532973053 13.193704190829976 200.3765337602759 H 0.0 **** 0.06
34738 H 89.93251695486418 12.543092033659036 199.85006824154124 H 0.0 **** 0.06
34739 H 90.28321380287514 14.278768731674063 199.66749390031543 H 0.0 **** 0.06
34740 H 90.02605653919377 13.588549814872067 201.28806116438466 H 0.0 **** 0.06
34741 C 19.779434851874043 235.62785930938153 236.1860251132229 C 0.0 **** -0.24
34742 H 20.252251663076265 234.89775318284987 236.84200350589683 H 0.0 **** 0.06
34743 H 19.43664092814062 235.13221715910333 235.27757228767302 H 0.0 **** 0.06
34744 H 20.50064948836672 236.40339059818945 235.92676651387495 H 0.0 **** 0.06
34745 H 18.929660535251656 236.0786259006039 236.69701183847792 H 0.0 **** 0.06
34746 C 70.16328606346869 124.70562049590134 284.82421544141886 C 0.0 **** -0.24
34747 H 69.81930941649358 124.44723027516073 283.8224924697108 H 0.0 **** 0.06
34748 H 70.90374735120042 123.97558642273478 285.1534352618335 H 0.0 **** 0.06
34749 H 69.31686482935473 124.70111311944785 285.51124828602315 H 0.0 **** 0.06
34750 H 70.6134161750565 125.69826815489293 284.8083139255092 H 0.0 **** 0.06
34751 C 100.95581600659796 191.98892806373271 212.0135350331679 C 0.0 **** -0.24
34752 H 100.33600911857667 192.08968900080504 212.90450248780127 H 0.0 **** 0.06
34753 H 100.38596196327495 192.29928534517057 211.13811794743566 H 0.0 **** 0.06
34754 H 101.261307708403 190.94925250189584 211.89955305074932 H 0.0 **** 0.06
34755 H 101.84054445648027 192.61855321329853 212.11385001732282 H 0.0 **** 0.06
34756 C 134.87451122441715 210.40085302759468 251.5559672099864 C 0.0 **** -0.24
34757 H 134.4024888301603 210.64169893286802 252.5084778183845 H 0.0 **** 0.06
34758 H 135.76583279780985 209.8002018590111 251.73400757385158 H 0.0 **** 0.06
34759 H 135.15264375365658 211.3232456071013 251.04557659690508 H 0.0 **** 0.06
34760 H 134.17469624854485 209.83980133520248 250.93678763421414 H 0.0 **** 0.06
34761 C 263.83864407024396 257.2651717157812 235.26458632803514 C 0.0 **** -0.24
34762 H 264.0858747204887 256.32422393157185 234.77164654552138 H 0.0 **** 0.06
34763 H 263.22574357107135 257.0632576468603 236.14374560961488 H 0.0 **** 0.06
34764 H 263.2864992477968 257.90222597105696 234.57432527844009 H 0.0 **** 0.06
34765 H 264.7565409219069 257.7676783941638 235.56831606680493 H 0.0 **** 0.06
34766 C 247.8603910571407 38.14647436122132 251.6217548885493 C 0.0 **** -0.24
34767 H 246.77624576481236 38.07242556682553 251.53696626404127 H 0.0 **** 0.06
34768 H 248.25731892121138 37.21380344035893 252.02451484308472 H 0.0 **** 0.06
34769 H 248.1175700810353 38.96908812962161 252.28956615741032 H 0.0 **** 0.06
34770 H 248.29008763472098 38.32973721903517 250.63775340541414 H 0.0 **** 0.06
34771 C 233.45793858866935 45.40446853402341 309.0951209541149 C 0.0 **** -0.24
34772 H 233.77163982236812 46.05830109338163 309.90874117833124 H 0.0 **** 0.06
34773 H 234.01074233035786 45.65929818289118 308.1904938338728 H 0.0 **** 0.06
34774 H 232.38998417830817 45.53339277024003 308.91817104522914 H 0.0 **** 0.06
34775 H 233.65900272376948 44.36754357394449 309.3651787123716 H 0.0 **** 0.06
34776 C 22.86553722877329 275.7354676686654 141.84708203188043 C 0.0 **** -0.24
34777 H 23.284918973985242 276.74196283960777 141.85717047599786 H 0.0 **** 0.06
34778 H 23.61982561196848 275.0238976539057 142.18422221461293 H 0.0 **** 0.06
34779 H 22.552962629596465 275.4820100992639 140.83464797215706 H 0.0 **** 0.06
34780 H 22.004044357086343 275.69513533384526 142.51417249644385 H 0.0 **** 0.06
34781 C 193.36243434185621 85.63586428015276 5.3300862396757935 C 0.0 **** -0.24
34782 H 193.16591743439017 86.7078146009303 5.292417029870506 H 0.0 **** 0.06
34783 H 193.44742219198855 85.24642583196268 4.314815774551803 H 0.0 **** 0.06
34784 H 192.54215350984714 85.13445225331657 5.84414138052837 H 0.0 **** 0.06
34785 H 194.29237188014162 85.4558895361653 5.868492788340475 H 0.0 **** 0.06
34786 C 18.029613698623905 193.95365215872727 139.54577161740406 C 0.0 **** -0.24
34787 H 17.30383313528378 194.62301533985084 139.0835748443174 H 0.0 **** 0.06
34788 H 17.907035882537286 192.94966134233027 139.13982523148266 H 0.0 **** 0.06
34789 H 17.868274653070216 193.93229931838704 140.62349380699663 H 0.0 **** 0.06
34790 H 19.03760855234178 194.31133363447742 139.33573665190224 H 0.0 **** 0.06
34791 C 69.24463696039334 134.95209066936428 233.92973496216297 C 0.0 **** -0.24
34792 H 69.63103933513173 135.222723240132 234.91198012657395 H 0.0 **** 0.06
34793 H 68.71684630397078 135.80436653430684 233.50027107694427 H 0.0 **** 0.06
34794 H 68.55649459975726 134.11220952685082 234.0292694348044 H 0.0 **** 0.06
34795 H 70.07178225677572 134.6702360544646 233.2788102498308 H 0.0 **** 0.06
34796 C 46.96990079483771 190.37887866916702 187.39209629835256 C 0.0 **** -0.24
34797 H 47.77834144607243 190.71537341474766 188.04068040755112 H 0.0 **** 0.06
34798 H 46.580405725671994 191.2271018143701 186.82818367935943 H 0.0 **** 0.06
34799 H 46.17306564572476 189.94853928893747 187.99922817513652 H 0.0 **** 0.06
34800 H 47.34787884849635 189.6256363171177 186.70113038164618 H 0.0 **** 0.06
34801 C 312.6734482895157 270.4735879701925 78.12360324192505 C 0.0 **** -0.24
34802 H 313.3228969376389 269.82957756508927 77.52976285397526 H 0.0 **** 0.06
34803 H 313.07207255140287 271.48841850626036 78.12378736721828 H 0.0 **** 0.06
34804 H 312.62864891076623 270.10041142557634 79.14620708854781 H 0.0 **** 0.06
34805 H 311.6724047254846 270.4771301862368 77.69303665846357 H 0.0 **** 0.06
34806 C 217.03698678926835 75.66991738106805 158.1071616252196 C 0.0 **** -0.24
34807 H 217.89378686437817 76.3424683799401 158.10051874763775 H 0.0 **** 0.06
34808 H 216.11687335538713 76.2528793573725 158.058716232679 H 0.0 **** 0.06
34809 H 217.04536228452105 75.080379423507 159.02386724701893 H 0.0 **** 0.06
34810 H 217.09087562562107 75.00326465745022 157.24620779866308 H 0.0 **** 0.06
34811 C 286.0295944526941 88.49750240808518 114.22617034719431 C 0.0 **** -0.24
34812 H 285.1008597309198 88.97036998766282 114.54613506496665 H 0.0 **** 0.06
34813 H 285.8493014565075 87.43980106476627 114.03000036708974 H 0.0 **** 0.06
34814 H 286.7783010683049 88.599400289837 115.0127315858941 H 0.0 **** 0.06
34815 H 286.3893146656027 88.98021765432756 113.3177091715439 H 0.0 **** 0.06
34816 C 299.4172509339307 167.65711753509999 230.3709882347796 C 0.0 **** -0.24
34817 H 300.09522547871455 166.8894195903726 230.74203637970322 H 0.0 **** 0.06
34818 H 298.7906528180878 167.23840463038835 229.5839522436715 H 0.0 **** 0.06
34819 H 299.9960716534893 168.49005451385904 229.97117088081808 H 0.0 **** 0.06
34820 H 298.7873877377076 168.0113472477537 231.18794112294668 H 0.0 **** 0.06
34821 C 299.55073353573465 111.6847802041251 265.7599354305017 C 0.0 **** -0.24
34822 H 300.570675524766 111.98468273088528 265.52093509581374 H 0.0 **** 0.06
34823 H 299.210238834546 112.2270969415396 266.6422818856263 H 0.0 **** 0.06
34824 H 299.52336588369405 110.61393833755756 265.95773090943885 H 0.0 **** 0.06
34825 H 298.89761582858904 111.91520047734224 264.91796268131714 H 0.0 **** 0.06
34826 C 211.08592324973483 45.46276093727636 215.06164122387162 C 0.0 **** -0.24
34827 H 210.97485853122672 46.25532357531037 215.80295050596493 H 0.0 **** 0.06
34828 H 210.26690413095514 44.75131243219457 215.16618813504465 H 0.0 **** 0.06
34829 H 212.03531376335047 44.95056899910472 215.21828866753148 H 0.0 **** 0.06
34830 H 211.06756295833088 45.89584846151746 214.06197755940445 H 0.0 **** 0.06
34831 C 35.99763149594531 278.8203356338274 80.44050287508563 C 0.0 **** -0.24
34832 H 36.80899500404615 279.0251239006763 79.74173297351385 H 0.0 **** 0.06
34833 H 36.39602512232301 278.7693966614472 81.45443339301653 H 0.0 **** 0.06
34834 H 35.52965674494794 277.87020072980266 80.18567030222144 H 0.0 **** 0.06
34835 H 35.25676252079404 279.6180472294832 80.3805385105361 H 0.0 **** 0.06
34836 C 120.73110797492393 75.29286722936837 271.7248378370724 C 0.0 **** -0.24
34837 H 120.92379022740968 74.50322435180291 272.45026324332275 H 0.0 **** 0.06
34838 H 121.67292013541939 75.76300724693559 271.4408685239973 H 0.0 **** 0.06
34839 H 120.071378607149 76.03934968509665 272.1676882144528 H 0.0 **** 0.06
34840 H 120.25655183133588 74.86760698452463 270.84054572452203 H 0.0 **** 0.06
34841 C 293.93733566125087 270.6641044896688 161.92985741413798 C 0.0 **** -0.24
34842 H 293.1461860639177 271.087862903825 162.54760126597483 H 0.0 **** 0.06
34843 H 294.74653768972246 271.38910370816734 161.82862218389 H 0.0 **** 0.06
34844 H 293.53942069332413 270.42487159478753 160.94362486002495 H 0.0 **** 0.06
34845 H 294.31861513484057 269.7572102501156 162.39931151386196 H 0.0 **** 0.06
34846 C 204.5873128418753 269.8025977355314 73.65207318744095 C 0.0 **** -0.24
34847 H 205.07792068875148 269.37623235835855 74.52633107265271 H 0.0 **** 0.06
34848 H 205.32699189245164 270.31145671254626 73.03261148465833 H 0.0 **** 0.06
34849 H 203.829160184874 270.5174260827955 73.97391062809737 H 0.0 **** 0.06
34850 H 204.1161634530937 269.0072830652087 73.07547005399482 H 0.0 **** 0.06
34851 C 201.57146181120868 110.06020696311077 98.77998457700375 C 0.0 **** -0.24
34852 H 201.95354055153587 111.00669539043304 98.39824927529298 H 0.0 **** 0.06
34853 H 200.5283217863493 110.18148590800661 99.074519231582 H 0.0 **** 0.06
34854 H 202.15966034336412 109.75275124902748 99.64375237787942 H 0.0 **** 0.06
34855 H 201.643519384257 109.29907200510641 98.00212363924354 H 0.0 **** 0.06
34856 C 307.1682096593459 285.21427580845307 221.93347835342612 C 0.0 **** -0.24
34857 H 306.61285514106714 284.27735951611174 221.90000348625955 H 0.0 **** 0.06
34858 H 308.23612973411923 285.0013323447347 221.9868838546804 H 0.0 **** 0.06
34859 H 306.8669985472096 285.7828655650318 222.81284625198384 H 0.0 **** 0.06
34860 H 306.95775703010577 285.79447610887576 221.03592409596894 H 0.0 **** 0.06
34861 C 261.8895875270771 281.6734721529882 94.94511432270806 C 0.0 **** -0.24
34862 H 262.44148500566655 281.93523946290657 95.84707518215242 H 0.0 **** 0.06
34863 H 260.8449837755577 281.9654525357333 95.06134605979776 H 0.0 **** 0.06
34864 H 261.95008576322437 280.5980553788377 94.78133376738992 H 0.0 **** 0.06
34865 H 262.3206095924356 282.19582870235917 94.09104994324684 H 0.0 **** 0.06
34866 C 268.22302464534465 15.451143506903747 7.686855246401137 C 0.0 **** -0.24
34867 H 268.67713184482704 16.28077401871245 7.1451724846524485 H 0.0 **** 0.06
34868 H 267.8687677280425 14.703320946799195 6.977251268214957 H 0.0 **** 0.06
34869 H 267.3830541961926 15.818733165621623 8.277010176175452 H 0.0 **** 0.06
34870 H 268.9630793460425 15.002029603135455 8.349370976251464 H 0.0 **** 0.06
34871 C 60.128644087220664 307.1767432619389 226.0567516533734 C 0.0 **** -0.24
34872 H 59.11634845288373 306.77376760258664 226.05335867607954 H 0.0 **** 0.06
34873 H 60.454589389780494 307.34737485080313 225.0309257087635 H 0.0 **** 0.06
34874 H 60.801043463351505 306.4666408727945 226.53886785202627 H 0.0 **** 0.06
34875 H 60.14315880550063 308.11897374954435 226.60513325769065 H 0.0 **** 0.06
34876 C 186.48565686522892 201.9396865919399 289.6221127273488 C 0.0 **** -0.24
34877 H 186.01212216947016 202.9162319129511 289.5175924852547 H 0.0 **** 0.06
34878 H 186.11220296003313 201.27058594943713 288.84588088825154 H 0.0 **** 0.06
34879 H 186.25320286975716 201.52566766690342 290.6020815070597 H 0.0 **** 0.06
34880 H 187.56561116764203 202.04772135000724 289.5194893991065 H 0.0 **** 0.06
34881 C 11.500394551502396 256.94646701266663 19.91072136991302 C 0.0 **** -0.24
34882 H 12.13330179616176 256.364580149901 20.57958042942262 H 0.0 **** 0.06
34883 H 12.071558756254461 257.7803415867324 19.503052393440214 H 0.0 **** 0.06
34884 H 10.642193413824486 257.3294407285262 20.46421960537225 H 0.0 **** 0.06
34885 H 11.152604161898367 256.31040871189987 19.095701099951015 H 0.0 **** 0.06
34886 C 54.67084381281782 229.03714915155197 3.6554749705836116 C 0.0 **** -0.24
34887 H 55.46784796753548 229.60019148693723 3.1703842024181057 H 0.0 **** 0.06
34888 H 54.78819628830158 229.10110813087476 4.737973008658642 H 0.0 **** 0.06
34889 H 54.72272168402273 227.99311256906014 3.345573931991069 H 0.0 **** 0.06
34890 H 53.705183840288356 229.45288116444524 3.368954364331799 H 0.0 **** 0.06
34891 C 199.3716263208666 215.08716867370532 311.97898199263955 C 0.0 **** -0.24
34892 H 198.6666010898574 214.27390159774535 312.14706361119147 H 0.0 **** 0.06
34893 H 199.31675802581725 215.79202474044854 312.8089354538676 H 0.0 **** 0.06
34894 H 199.12141200655134 215.59875489975508 311.05006451720135 H 0.0 **** 0.06
34895 H 200.38155635643955 214.68394992534428 311.910847493054 H 0.0 **** 0.06
34896 C 239.2505953623516 284.9132513378251 126.6406075644791 C 0.0 **** -0.24
34897 H 238.97524328605354 283.8618920902699 126.71666879939508 H 0.0 **** 0.06
34898 H 238.3531641241683 285.5159872485531 126.50034728609904 H 0.0 **** 0.06
34899 H 239.918339840006 285.0529936427109 125.79035069045145 H 0.0 **** 0.06
34900 H 239.7575738866775 285.2231129519814 127.55453803602606 H 0.0 **** 0.06
34901 C 218.06050065120957 111.45241300670764 123.43106231403897 C 0.0 **** -0.24
34902 H 219.02568653786773 111.88581000123179 123.16866833541704 H 0.0 **** 0.06
34903 H 217.30862177597996 112.24022179666557 123.47738528269662 H 0.0 **** 0.06
34904 H 218.1348020530595 110.96298645248663 124.4022524604054 H 0.0 **** 0.06
34905 H 217.77531351904793 110.72027901754194 122.67605074571011 H 0.0 **** 0.06
34906 C 66.53686874356904 205.2303700862791 161.93746566741197 C 0.0 **** -0.24
34907 H 67.15381908244416 204.42468137090583 161.5391676325458 H 0.0 **** 0.06
34908 H 66.30922185318087 205.02917517142248 162.98449424944073 H 0.0 **** 0.06
34909 H 65.6090541700791 205.29300741205486 161.36917786107358 H 0.0 **** 0.06
34910 H 67.07727995973943 206.17399659785582 161.85709727951019 H 0.0 **** 0.06
34911 C 118.60562723166277 266.44651859628385 191.97038441555566 C 0.0 **** -0.24
34912 H 119.20180472149184 265.5505724030501 192.14481827556455 H 0.0 **** 0.06
34913 H 117.80540643612264 266.49999515505823 192.7073798553049 H 0.0 **** 0.06
34914 H 118.17559397826699 266.40675969985597 190.96938342508855 H 0.0 **** 0.06
34915 H 119.24195323805935 267.3272298942617 192.05737966409924 H 0.0 **** 0.06
34916 C 236.56689585244885 14.781371253080579 197.27431225021382 C 0.0 **** -0.24
34917 H 237.178854965554 14.05646915011718 197.81105272268633 H 0.0 **** 0.06
34918 H 236.6198348367243 14.579362732404391 196.2039948317095 H 0.0 **** 0.06
34919 H 236.93631962491745 15.787704908843637 197.47281666258135 H 0.0 **** 0.06
34920 H 235.53236108327573 14.701580922766453 197.60847937213742 H 0.0 **** 0.06
34921 C 113.83648832756361 132.7333110201323 192.42629435778485 C 0.0 **** -0.24
34922 H 113.8259444832635 131.69961562085612 192.7708941192176 H 0.0 **** 0.06
34923 H 113.49970123360777 132.77477047050436 191.38991705086244 H 0.0 **** 0.06
34924 H 114.84948292420347 133.13000906158976 192.4957778965727 H 0.0 **** 0.06
34925 H 113.16921046116929 133.33068092566637 193.04839306337266 H 0.0 **** 0.06
34926 C 179.71496639646932 21.148454628115672 200.87100288615363 C 0.0 **** -0.24
34927 H 180.56551086769707 21.75377932900716 201.18488894843296 H 0.0 **** 0.06
34928 H 178.86127445909068 21.798617061790168 200.67422065781636 H 0.0 **** 0.06
34929 H 179.46030892232181 20.442545582675095 201.66078597980783 H 0.0 **** 0.06
34930 H 179.97344972588513 20.602548108003603 199.96435974581573 H 0.0 **** 0.06
34931 C 307.0634040982019 59.9721123051541 61.00219947117594 C 0.0 **** -0.24
34932 H 307.2876225229843 59.17160989288138 60.2974148696768 H 0.0 **** 0.06
34933 H 306.06787127497506 59.82037080809391 61.42004545788495 H 0.0 **** 0.06
34934 H 307.09860119466344 60.931417404929135 60.48585245611355 H 0.0 **** 0.06
34935 H 307.800903996268 59.96477429939597 61.80559377649482 H 0.0 **** 0.06
34936 C 259.07115955040797 15.875813768904067 289.52841687402844 C 0.0 **** -0.24
34937 H 260.0065415572578 15.357824824171203 289.31822814617743 H 0.0 **** 0.06
34938 H 259.1920858686615 16.940272029534654 289.32471171511196 H 0.0 **** 0.06
34939 H 258.8042789084815 15.73359410571095 290.57608793149257 H 0.0 **** 0.06
34940 H 258.28259623296526 15.47198421201577 288.8943633052752 H 0.0 **** 0.06
34941 C 243.6716740475711 197.1984985199914 305.3245889092909 C 0.0 **** -0.24
34942 H 243.30133259377814 196.4487631918406 304.62534753774594 H 0.0 **** 0.06
34943 H 244.1353492515621 198.01460060143137 304.7693672840325 H 0.0 **** 0.06
34944 H 244.4085691610942 196.7444420276483 305.9872816317897 H 0.0 **** 0.06
34945 H 242.84192549747928 197.58510278382198 305.91446417307554 H 0.0 **** 0.06
34946 C 229.35456237699756 11.491612252709729 30.73555654999305 C 0.0 **** -0.24
34947 H 230.20587459074267 11.477302085623847 31.41565439658686 H 0.0 **** 0.06
34948 H 229.41859345884825 10.642117397460467 30.05464182171582 H 0.0 **** 0.06
34949 H 229.36231656220045 12.418200914208668 30.163101602455924 H 0.0 **** 0.06
34950 H 228.4303162190991 11.42694011014271 31.309883899385966 H 0.0 **** 0.06
34951 C 286.2823388261598 296.057771551009 134.81267032495606 C 0.0 **** -0.24
34952 H 286.0939352049758 295.8363979805946 133.76253501742974 H 0.0 **** 0.06
34953 H 286.947162282442 296.9178894527551 134.88899407509012 H 0.0 **** 0.06
34954 H 286.7490975901188 295.19423407490126 135.28758256744823 H 0.0 **** 0.06
34955 H 285.33946289935943 296.2816125732981 135.31152654951293 H 0.0 **** 0.06
34956 C 23.329304527427666 126.58492614119854 182.79369414731832 C 0.0 **** -0.24
34957 H 24.03042764121028 125.77290354747004 182.60386256004216 H 0.0 **** 0.06
34958 H 23.67246393846318 127.48669794486042 182.2852734664712 H 0.0 **** 0.06
34959 H 23.271827328689483 126.77199947054135 183.8656359776753 H 0.0 **** 0.06
34960 H 22.343209534344396 126.30964680669905 182.41966700611562 H 0.0 **** 0.06
34961 C 257.18986633328683 169.55558328600875 252.15654394636255 C 0.0 **** -0.24
34962 H 257.740506254739 168.6360017644127 251.95729572446731 H 0.0 **** 0.06
34963 H 257.33708276453024 170.2525227975031 251.3302546514679 H 0.0 **** 0.06
34964 H 257.55510824340337 170.0041203594081 253.08088922539514 H 0.0 **** 0.06
34965 H 256.1287112232849 169.32967202682846 252.25624490216552 H 0.0 **** 0.06
34966 C 236.81526177888855 283.595742801895 76.74056808317656 C 0.0 **** -0.24
34967 H 235.8622540722458 284.1006002117076 76.57930227365287 H 0.0 **** 0.06
34968 H 236.92822757721316 283.36300871500663 77.8000051642216 H 0.0 **** 0.06
34969 H 237.6297608138512 284.24729287015055 76.42314063765258 H 0.0 **** 0.06
34970 H 236.84029003326714 282.6733043709498 76.16028256879122 H 0.0 **** 0.06
34971 C 295.94759748072113 278.82626596658645 80.29409121317292 C 0.0 **** -0.24
34972 H 295.84990579896015 279.1640307279982 81.32619278502827 H 0.0 **** 0.06
34973 H 295.9533080630586 279.68985733323785 79.62849622073827 H 0.0 **** 0.06
34974 H 295.10725652010444 278.17982930085265 80.04265125349704 H 0.0 **** 0.06
34975 H 296.8791598148176 278.2721508404146 80.17990542760228 H 0.0 **** 0.06
34976 C 166.0973787327411 146.05201113196114 106.22331140733203 C 0.0 **** -0.24
34977 H 166.11284364157393 146.17116343656423 105.14048459308336 H 0.0 **** 0.06
34978 H 165.33876782592472 146.70847988530173 106.65011068114265 H 0.0 **** 0.06
34979 H 167.07454113805136 146.3123133619932 106.63147281850317 H 0.0 **** 0.06
34980 H 165.8645118246394 145.01657993042332 106.4718382267499 H 0.0 **** 0.06
34981 C 265.69359029256896 186.95789463263822 209.1578025690293 C 0.0 **** -0.24
34982 H 266.7587605592423 186.74754112438757 209.252142660477 H 0.0 **** 0.06
34983 H 265.4408872646884 187.08647041148623 208.10554936917885 H 0.0 **** 0.06
34984 H 265.4539520658129 187.87010577992436 209.7039176591078 H 0.0 **** 0.06
34985 H 265.1217481729741 186.12697066060514 209.57048682035926 H 0.0 **** 0.06
34986 C 24.909890350595333 27.985460629585845 68.77126171693794 C 0.0 **** -0.24
34987 H 25.281890302264685 27.49548750300889 69.67143099218748 H 0.0 **** 0.06
34988 H 25.620478229620858 27.839656299556253 67.95832056974032 H 0.0 **** 0.06
34989 H 24.788297285355952 29.05158206885676 68.96230765967141 H 0.0 **** 0.06
34990 H 23.947040513935008 27.55403649153891 68.49551589153361 H 0.0 **** 0.06
34991 C 133.39181685385864 195.33837899306445 225.40179239232134 C 0.0 **** -0.24
34992 H 133.7356855487539 194.31958923159237 225.22237641274012 H 0.0 **** 0.06
34993 H 134.08114286551188 195.83915823424599 226.08240987380395 H 0.0 **** 0.06
34994 H 132.39646957339627 195.31389541987738 225.84395830022802 H 0.0 **** 0.06
34995 H 133.35580936941858 195.88030039242113 224.4559176570034 H 0.0 **** 0.06
34996 C 265.80116413975105 110.5472075379596 292.0921397365628 C 0.0 **** -0.24
34997 H 265.7264960868526 110.37948491935089 293.16640420746324 H 0.0 **** 0.06
34998 H 265.54662365557886 111.58357056727024 291.868023321096 H 0.0 **** 0.06
34999 H 265.1133985545394 109.88196496011957 291.5710407460488 H 0.0 **** 0.06
35000 H 266.8207472033747 110.34527332330464 291.7633171387447 H 0.0 **** 0.06
35001 C 136.6114063300594 263.856849741396 79.54696551463962 C 0.0 **** -0.24
35002 H 136.1978790362019 262.90169077418966 79.86752107219024 H 0.0 **** 0.06
35003 H 136.81659329323762 264.4752050627247 80.42073685540447 H 0.0 **** 0.06
35004 H 135.89343847787416 264.3650810726827 78.90233039877796 H 0.0 **** 0.06
35005 H 137.53725647265637 263.6866827121646 78.99617784960822 H 0.0 **** 0.06
35006 C 143.73590452643217 69.95088378783831 285.25116938353614 C 0.0 **** -0.24
35007 H 143.99365609539396 70.73270711321422 285.96499272484465 H 0.0 **** 0.06
35008 H 143.8423878673874 70.33547697932639 284.23697032814005 H 0.0 **** 0.06
35009 H 142.7058468656715 69.6350338247334 285.41461467566256 H 0.0 **** 0.06
35010 H 144.40334513143966 69.09966227230632 285.38907632533426 H 0.0 **** 0.06
35011 C 4.504521904347669 56.15380676601694 286.0260994749069 C 0.0 **** -0.24
35012 H 4.805314688740637 56.80193622951208 286.8492630367497 H 0.0 **** 0.06
35013 H 4.950008949964982 55.16763111736611 286.1604766918787 H 0.0 **** 0.06
35014 H 4.845107450540908 56.58202742824949 285.08397215069465 H 0.0 **** 0.06
35015 H 3.418381708040073 56.064010414690244 286.0133936338405 H 0.0 **** 0.06
35016 C 284.58235703967176 150.6999694201224 296.5583502105151 C 0.0 **** -0.24
35017 H 284.8446231738849 150.36768895140017 297.56296979845695 H 0.0 **** 0.06
35018 H 283.71733087895905 151.3619534882822 296.60966482185654 H 0.0 **** 0.06
35019 H 284.3419487369502 149.83404630851413 295.9417236123555 H 0.0 **** 0.06
35020 H 285.4247631262163 151.23448085313237 296.1213881353897 H 0.0 **** 0.06
35021 C 63.536873908685834 14.54536748160271 65.58872652024155 C 0.0 **** -0.24
35022 H 63.726219312826856 13.838318962265376 64.78083292527322 H 0.0 **** 0.06
35023 H 63.495181284842715 15.556752183457576 65.18355610787805 H 0.0 **** 0.06
35024 H 64.33858766952432 14.479823927114495 66.32339885002756 H 0.0 **** 0.06
35025 H 62.5868460104862 14.304667111417189 66.06573141960845 H 0.0 **** 0.06
35026 C 308.5198628860252 253.27176414321985 194.90771124360742 C 0.0 **** -0.24
35027 H 307.9614895072018 254.03049458261603 195.45714790568877 H 0.0 **** 0.06
35028 H 309.5880877412215 253.45870102879934 195.0143583553088 H 0.0 **** 0.06
35029 H 308.2465350187458 253.312944241749 193.85264990275988 H 0.0 **** 0.06
35030 H 308.28068562049725 252.28587417275847 195.30689234745194 H 0.0 **** 0.06
35031 C 141.40879791847004 40.37623538010118 151.29105920336787 C 0.0 **** -0.24
35032 H 140.6544324954294 39.71027415973572 150.87281070219467 H 0.0 **** 0.06
35033 H 142.31944558890572 39.812934638502355 151.49288447746358 H 0.0 **** 0.06
35034 H 141.0354767008429 40.81076838586168 152.2182526482826 H 0.0 **** 0.06
35035 H 141.62506694339135 41.17283011916135 150.57713841390125 H 0.0 **** 0.06
35036 C 203.7772935983084 221.75046992662521 176.8971022993838 C 0.0 **** -0.24
35037 H 204.36215349141736 221.70873477163587 175.97829196432008 H 0.0 **** 0.06
35038 H 204.32293579284158 221.25308412328982 177.69849565144983 H 0.0 **** 0.06
35039 H 202.82086552621604 221.25057615230418 176.74194460527326 H 0.0 **** 0.06
35040 H 203.602265202289 222.79171973412065 177.1682300368388 H 0.0 **** 0.06
35041 C 269.0109225159562 196.95134458841147 150.51804951799278 C 0.0 **** -0.24
35042 H 268.32659570242095 197.52865927506008 151.13889000475774 H 0.0 **** 0.06
35043 H 270.03718370338294 197.24619909565223 150.7373190901157 H 0.0 **** 0.06
35044 H 268.7953471701012 197.1418667768719 149.46667474363016 H 0.0 **** 0.06
35045 H 268.8841333406432 195.88914369701791 150.7285563439999 H 0.0 **** 0.06
35046 C 35.643044295663884 217.1123065487629 157.9707368488841 C 0.0 **** -0.24
35047 H 35.55952740815158 216.09729834445966 157.5811965704881 H 0.0 **** 0.06
35048 H 36.66217010303515 217.472199866172 157.8301888576554 H 0.0 **** 0.06
35049 H 35.39891068226467 217.113199190917 159.03352814380287 H 0.0 **** 0.06
35050 H 34.950105673224215 217.76395599292923 157.4385231538236 H 0.0 **** 0.06
35051 C 306.8278413141462 212.11639964359676 98.91000829382801 C 0.0 **** -0.24
35052 H 306.1643081540585 212.0922098780724 98.04501525626893 H 0.0 **** 0.06
35053 H 306.9032277436905 211.11683221808025 99.33784143529047 H 0.0 **** 0.06
35054 H 306.4264921852525 212.80210143299263 99.65624236088485 H 0.0 **** 0.06
35055 H 307.8163826687142 212.4547159306671 98.59992374261495 H 0.0 **** 0.06
35056 C 91.63749572374022 230.49487435454643 78.0420762025334 C 0.0 **** -0.24
35057 H 91.95316735292985 231.5232399726019 77.86794428304879 H 0.0 **** 0.06
35058 H 91.47831373807998 229.99645686179667 77.08582495488344 H 0.0 **** 0.06
35059 H 90.7096971862652 230.49115195471018 78.61403980882957 H 0.0 **** 0.06
35060 H 92.41118896450354 229.968288954429 78.60228057846783 H 0.0 **** 0.06
35061 C 102.32711919323475 22.72874513507628 25.286752545561853 C 0.0 **** -0.24
35062 H 102.05074832608875 21.896693260828272 24.638283442788293 H 0.0 **** 0.06
35063 H 101.42542597732435 23.206069587840062 25.67003189501844 H 0.0 **** 0.06
35064 H 102.90886662805423 23.453822178643264 24.717767877886672 H 0.0 **** 0.06
35065 H 102.92389536658135 22.35740225867363 26.119584470357154 H 0.0 **** 0.06
35066 C 215.04972573771812 12.755680071358142 102.1290727064073 C 0.0 **** -0.24
35067 H 216.1214672577604 12.555995651901881 102.12631614575588 H 0.0 **** 0.06
35068 H 214.5057718870574 11.815740466383161 102.22562372896837 H 0.0 **** 0.06
35069 H 214.76947838357432 13.242583722586133 101.19493053015353 H 0.0 **** 0.06
35070 H 214.8030270389301 13.407400130937319 102.96606019561855 H 0.0 **** 0.06
35071 C 47.33778193464366 32.71684321839888 155.6824909006853 C 0.0 **** -0.24
35072 H 46.26674801674838 32.81668725736887 155.86074035491077 H 0.0 **** 0.06
35073 H 47.645850576003625 33.429253115946636 154.91717188208582 H 0.0 **** 0.06
35074 H 47.55564882873557 31.703602627410305 155.34474562449782 H 0.0 **** 0.06
35075 H 47.88023113615699 32.91730140203953 156.6060009042809 H 0.0 **** 0.06
35076 C 269.45163274708807 114.49313571289974 161.94948261517948 C 0.0 **** -0.24
35077 H 268.9741335336564 114.31970446722801 162.91390703138336 H 0.0 **** 0.06
35078 H 268.7368346717351 114.2941090365513 161.15008068234516 H 0.0 **** 0.06
35079 H 270.30965707267353 113.82942780699483 161.84450442398327 H 0.0 **** 0.06
35080 H 269.7837260001419 115.5300288052224 161.89028683770607 H 0.0 **** 0.06
35081 C 153.3241673908512 112.72142837145284 76.87512955374848 C 0.0 **** -0.24
35082 H 153.04373238122622 112.95971572774891 75.84938802258608 H 0.0 **** 0.06
35083 H 153.78661730228612 113.59390983568062 77.3372459095873 H 0.0 **** 0.06
35084 H 154.0322964998462 111.89229662540632 76.87487215692619 H 0.0 **** 0.06
35085 H 152.43497198668348 112.44009125908431 77.43911298561898 H 0.0 **** 0.06
35086 C 66.35051523282809 206.19463368110507 100.01059836375555 C 0.0 **** -0.24
35087 H 65.56026093064818 206.94614501664148 100.02080650362487 H 0.0 **** 0.06
35088 H 66.58210684279567 205.89768038725117 101.0335320946906 H 0.0 **** 0.06
35089 H 67.24177291641558 206.61192628274642 99.54217977419765 H 0.0 **** 0.06
35090 H 66.01622633969504 205.32413329905887 99.44642962180552 H 0.0 **** 0.06
35091 C 52.66915521640101 204.8427209250902 77.11863190597111 C 0.0 **** -0.24
35092 H 53.60801424811248 204.4288168519268 76.75268726484865 H 0.0 **** 0.06
35093 H 51.98237572939465 204.98041189167844 76.28347773822091 H 0.0 **** 0.06
35094 H 52.85918829490279 205.80453143602261 77.59566788261901 H 0.0 **** 0.06
35095 H 52.227604264231104 204.1582950309476 77.84325339593465 H 0.0 **** 0.06
35096 C 230.7056010536996 129.7203093891526 53.73356752324969 C 0.0 **** -0.24
35097 H 230.75803810757657 130.09571447461806 52.71078175162668 H 0.0 **** 0.06
35098 H 230.83694264158555 130.54842314016838 54.4304300312335 H 0.0 **** 0.06
35099 H 231.4947222754189 128.98476663639124 53.890302672879045 H 0.0 **** 0.06
35100 H 229.73489288487443 129.25363816408338 53.899516209072004 H 0.0 **** 0.06
35101 C 86.84054918971643 5.17215326628893 165.16633357560556 C 0.0 **** -0.24
35102 H 87.22596972441687 4.622416457906311 166.0243078161132 H 0.0 **** 0.06
35103 H 86.51832972457257 4.468714749908116 164.39851118706383 H 0.0 **** 0.06
35104 H 87.6240665132917 5.815602936782781 164.7646950811053 H 0.0 **** 0.06
35105 H 85.9934778192031 5.783430481988589 165.4785043801133 H 0.0 **** 0.06
35106 C 45.94646287247963 22.30199608388756 118.04645245676176 C 0.0 **** -0.24
35107 H 46.23544644020777 21.26076654223391 118.19196153705656 H 0.0 **** 0.06
35108 H 46.64875228296842 22.94941121531437 118.571236774261 H 0.0 **** 0.06
35109 H 44.94266228039692 22.458686895723503 118.44264901837093 H 0.0 **** 0.06
35110 H 45.958416354309236 22.537438615208004 116.98310008312592 H 0.0 **** 0.06
35111 C 223.3230202043659 228.19567037988287 289.905557351586 C 0.0 **** -0.24
35112 H 224.13754604588132 227.54927952395005 289.5794440849836 H 0.0 **** 0.06
35113 H 223.6809016932614 228.86556263218546 290.68703515525686 H 0.0 **** 0.06
35114 H 222.50878447929523 227.58379233464365 290.2958300752692 H 0.0 **** 0.06
35115 H 222.96352898603828 228.7813859170451 289.0603409786723 H 0.0 **** 0.06
35116 C 8.909379560716559 48.916964239342946 101.90078191112968 C 0.0 **** -0.24
35117 H 7.824725535039903 48.88304501312504 102.00123328680286 H 0.0 **** 0.06
35118 H 9.342148617736598 48.01658451645693 102.33859312023446 H 0.0 **** 0.06
35119 H 9.295059516501226 49.79468015302538 102.41860436408746 H 0.0 **** 0.06
35120 H 9.174496101917995 48.9716923498396 100.84530884190667 H 0.0 **** 0.06
35121 C 296.2972833665478 149.90015104639065 214.5828874555499 C 0.0 **** -0.24
35122 H 295.7889841379542 150.82488362983605 214.30929488549793 H 0.0 **** 0.06
35123 H 297.3614429440771 149.9923759356708 214.36311412136297 H 0.0 **** 0.06
35124 H 295.8786302612935 149.0726058611964 214.0108062632322 H 0.0 **** 0.06
35125 H 296.1605928870367 149.71183997473344 215.64761324260508 H 0.0 **** 0.06
35126 C 81.20108978148386 225.6401437275203 28.413823325657916 C 0.0 **** -0.24
35127 H 80.28059004518792 225.93800632732223 27.91264226745065 H 0.0 **** 0.06
35128 H 81.15099249199264 224.58169543555573 28.66761816574609 H 0.0 **** 0.06
35129 H 81.32480233377541 226.22705453344673 29.324167360626575 H 0.0 **** 0.06
35130 H 82.04782520848903 225.8160112639004 27.75045308547641 H 0.0 **** 0.06
35131 C 170.09576939531178 208.36171471854675 99.93613418127933 C 0.0 **** -0.24
35132 H 171.0997958312584 208.3150591958196 99.51684249423448 H 0.0 **** 0.06
35133 H 169.45379520290868 207.64362600789184 99.42455124943956 H 0.0 **** 0.06
35134 H 169.69402997566095 209.36614578769274 99.80679350309188 H 0.0 **** 0.06
35135 H 170.13525246099215 208.1203461191184 100.99920080426108 H 0.0 **** 0.06
35136 C 128.91240478004448 267.81595494461465 138.24757092571636 C 0.0 **** -0.24
35137 H 129.85876868044156 268.193247187359 138.63610700536339 H 0.0 **** 0.06
35138 H 128.632175796333 266.9118117306842 138.78895444949754 H 0.0 **** 0.06
35139 H 129.0199415905946 267.586982665838 137.18804184490781 H 0.0 **** 0.06
35140 H 128.13901622771408 268.57394811006753 138.37967265674985 H 0.0 **** 0.06
35141 C 210.59688149045576 75.10528990276242 237.46028748043992 C 0.0 **** -0.24
35142 H 209.7901417184519 74.63449759267215 238.020866542445 H 0.0 **** 0.06
35143 H 210.25930596170713 76.06907571188154 237.07869734948366 H 0.0 **** 0.06
35144 H 210.88366429591298 74.46398530945194 236.6263106251099 H 0.0 **** 0.06
35145 H 211.45515337342036 75.25515342211182 238.1150673283115 H 0.0 **** 0.06
35146 C 175.10600255379597 26.18132737687199 211.09620481731898 C 0.0 **** -0.24
35147 H 174.61332900997064 25.707014327987054 211.94446200528228 H 0.0 **** 0.06
35148 H 175.52968775002591 27.136128396619256 211.4101653633029 H 0.0 **** 0.06
35149 H 174.37960790701715 26.349964239356268 210.3012011847767 H 0.0 **** 0.06
35150 H 175.90239184627063 25.53322611968167 210.72996008142533 H 0.0 **** 0.06
35151 C 253.03549269937366 201.5821463925513 273.4970799888698 C 0.0 **** -0.24
35152 H 253.33991906931135 202.62544612176129 273.5783917882729 H 0.0 **** 0.06
35153 H 253.11807165406591 201.26018531361183 272.4583244179651 H 0.0 **** 0.06
35154 H 252.00227445742837 201.4786113864954 273.82853423466986 H 0.0 **** 0.06
35155 H 253.6816828619368 200.96575523399383 274.1210684164961 H 0.0 **** 0.06
35156 C 302.89131731776854 6.519054696037955 22.796095842511647 C 0.0 **** -0.24
35157 H 303.73923533852087 6.1299617574138665 23.35877520060285 H 0.0 **** 0.06
35158 H 301.96522178064595 6.2481927633348135 23.30429976302412 H 0.0 **** 0.06
35159 H 302.89353772650617 6.092591044239526 21.793033445147245 H 0.0 **** 0.06
35160 H 302.96560293849683 7.604199451583597 22.730415916247864 H 0.0 **** 0.06
35161 C 255.08408892100786 127.80823163256565 113.9580373127244 C 0.0 **** -0.24
35162 H 255.6982169538158 126.90994299859597 113.89989407208134 H 0.0 **** 0.06
35163 H 254.1423467698193 127.5730018715806 114.45561448038961 H 0.0 **** 0.06
35164 H 254.88228620864194 128.175739760527 112.95136318672593 H 0.0 **** 0.06
35165 H 255.61350575175436 128.574241899559 114.52527751170072 H 0.0 **** 0.06
35166 C 164.99803104973586 146.8787487344124 100.2116561487006 C 0.0 **** -0.24
35167 H 163.93768311051622 146.69866330382368 100.03474420659026 H 0.0 **** 0.06
35168 H 165.32984315714924 146.2851886589726 101.06333420445574 H 0.0 **** 0.06
35169 H 165.15723275384437 147.93609698106337 100.42116473730857 H 0.0 **** 0.06
35170 H 165.56703988945299 146.59425459729943 99.32686387149926 H 0.0 **** 0.06
35171 C 119.37377929448184 220.26758865952814 235.5548898126691 C 0.0 **** -0.24
35172 H 120.11363595525981 219.8336632559741 236.22739201701893 H 0.0 **** 0.06
35173 H 119.88335042372367 220.8013568247223 234.75174775375865 H 0.0 **** 0.06
35174 H 118.74300938473982 220.96173296623567 236.10850641628292 H 0.0 **** 0.06
35175 H 118.75792663438594 219.47486149495415 235.13117588843875 H 0.0 **** 0.06
35176 C 22.130430722844892 3.0677398081955687 26.35235356589365 C 0.0 **** -0.24
35177 H 22.50224050953335 2.050641435351011 26.22770312196147 H 0.0 **** 0.06
35178 H 22.292634894780434 3.3916354761049377 27.380967078389688 H 0.0 **** 0.06
35179 H 21.064328073799345 3.095094290732547 26.125897772880933 H 0.0 **** 0.06
35180 H 22.662269044933055 3.7341207320586847 25.672689077473564 H 0.0 **** 0.06
35181 C 173.33060839142075 291.98710319734823 148.8701270609497 C 0.0 **** -0.24
35182 H 173.9125274290284 291.06812572858064 148.94445739179895 H 0.0 **** 0.06
35183 H 173.99233988298863 292.8157649130975 148.61786817742998 H 0.0 **** 0.06
35184 H 172.84457060789492 292.1868559939153 149.82486757083353 H 0.0 **** 0.06
35185 H 172.57352940345942 291.87527613664577 148.0933693969491 H 0.0 **** 0.06
35186 C 154.72800486296967 75.19752338196685 129.66800285596165 C 0.0 **** -0.24
35187 H 155.6554462992675 75.7172362931127 129.91281754411935 H 0.0 **** 0.06
35188 H 153.8777911716694 75.81560330909409 129.95670899264178 H 0.0 **** 0.06
35189 H 154.68974514746895 74.25032236834198 130.2060974427544 H 0.0 **** 0.06
35190 H 154.6924271328711 75.0068969547593 128.59516076947943 H 0.0 **** 0.06
35191 C 275.6891809024614 225.36778471301142 116.36144859838782 C 0.0 **** -0.24
35192 H 276.08799472304025 226.12676251447115 117.03384400241242 H 0.0 **** 0.06
35193 H 274.8666658598431 224.84505421542846 116.85018695777902 H 0.0 **** 0.06
35194 H 276.4755611973252 224.6556019669958 116.11094686350228 H 0.0 **** 0.06
35195 H 275.32650182963687 225.84372015515035 115.45081656985747 H 0.0 **** 0.06
35196 C 279.7257365740246 62.058845312504616 45.82427312362296 C 0.0 **** -0.24
35197 H 279.4399412452855 62.657885873462305 44.96040867798857 H 0.0 **** 0.06
35198 H 279.1603256194628 62.38745930868774 46.69713889252995 H 0.0 **** 0.06
35199 H 280.7924400682647 62.18239319298064 46.01495593027229 H 0.0 **** 0.06
35200 H 279.511991512957 61.00896192200503 45.62567991649763 H 0.0 **** 0.06
35201 C 125.73168227082186 239.73388316498256 62.51642950578048 C 0.0 **** -0.24
35202 H 126.5120430796421 239.19884244234686 61.97582819212738 H 0.0 **** 0.06
35203 H 125.14369996589602 239.0263142947975 63.10001964261505 H 0.0 **** 0.06
35204 H 125.08344520553857 240.24640527864082 61.80499353232375 H 0.0 **** 0.06
35205 H 126.18847215133115 240.4645054976482 63.183956555282805 H 0.0 **** 0.06
35206 C 96.52601983074283 83.44470447849832 96.8978525422437 C 0.0 **** -0.24
35207 H 97.03001861095643 82.49738062384608 96.70731096600795 H 0.0 **** 0.06
35208 H 95.95375025023404 83.73486103748127 96.01633563861407 H 0.0 **** 0.06
35209 H 97.26829213842055 84.21204852956203 97.11883733995819 H 0.0 **** 0.06
35210 H 95.85427895225408 83.33371089360841 97.74845465934362 H 0.0 **** 0.06
35211 C 53.2930344971995 186.45652685153198 219.67306675300904 C 0.0 **** -0.24
35212 H 52.894004306939195 185.44348211947266 219.72037030824 H 0.0 **** 0.06
35213 H 54.33294041970612 186.42216895835952 219.34909521887096 H 0.0 **** 0.06
35214 H 53.23467038186416 186.91627911835457 220.65988022843462 H 0.0 **** 0.06
35215 H 52.70926548052398 187.0435614085947 218.96312061430893 H 0.0 **** 0.06
35216 C 301.3687069492728 264.2597588312582 102.8042465602054 C 0.0 **** -0.24
35217 H 301.79540790982605 263.9577650547232 103.76116108250983 H 0.0 **** 0.06
35218 H 301.3057980639076 265.34693342188274 102.76079278940736 H 0.0 **** 0.06
35219 H 300.3715263458873 263.8332071778841 102.70129086181299 H 0.0 **** 0.06
35220 H 302.0040194635303 263.89923038812697 101.99457279523008 H 0.0 **** 0.06
35221 C 46.01605256120533 313.27651908486445 231.3370577578016 C 0.0 **** -0.24
35222 H 45.36670790308466 313.53710849004926 230.5017039264673 H 0.0 **** 0.06
35223 H 46.90694002483585 312.77279585397997 230.9603884212008 H 0.0 **** 0.06
35224 H 45.48404696682644 312.61393548018066 232.0189275102478 H 0.0 **** 0.06
35225 H 46.30735837830315 314.18406693182067 231.86624220420418 H 0.0 **** 0.06
35226 C 85.88302670549919 282.86111242692624 274.6924477704366 C 0.0 **** -0.24
35227 H 85.47473050704855 282.70362321757074 273.6936291092603 H 0.0 **** 0.06
35228 H 86.01377765217097 283.92922419497006 274.86651899597 H 0.0 **** 0.06
35229 H 86.84579484112297 282.35818891966375 274.77427567412906 H 0.0 **** 0.06
35230 H 85.1957039088262 282.45284327236595 275.4333020205522 H 0.0 **** 0.06
35231 C 127.85296287399444 77.84382597672376 28.149903838993964 C 0.0 **** -0.24
35232 H 128.3668995251976 78.59109521348071 28.75456337668936 H 0.0 **** 0.06
35233 H 128.3259014320539 77.78227649106495 27.169259083919997 H 0.0 **** 0.06
35234 H 126.80699050433557 78.12879146903313 28.032776455319663 H 0.0 **** 0.06
35235 H 127.91253720811082 76.87382431528948 28.6435687311199 H 0.0 **** 0.06
35236 C 108.60478120422056 302.98446986207693 194.362035280486 C 0.0 **** -0.24
35237 H 108.7140668984083 301.9067368110957 194.49007615545418 H 0.0 **** 0.06
35238 H 109.13234383113172 303.500952569009 195.16490117534528 H 0.0 **** 0.06
35239 H 107.54881051836094 303.2484545410406 194.39167206054543 H 0.0 **** 0.06
35240 H 109.02708379641035 303.2798440033612 193.4009364340567 H 0.0 **** 0.06
35241 C 266.9588779152669 203.97368323725118 196.77481675599915 C 0.0 **** -0.24
35242 H 266.6248781193435 204.92453374256849 197.19085858776424 H 0.0 **** 0.06
35243 H 266.9973903467856 204.04562722798607 195.68792936338633 H 0.0 **** 0.06
35244 H 266.26171415825763 203.18697367178873 197.06351574515077 H 0.0 **** 0.06
35245 H 267.9518996096251 203.73855035171806 197.1597840237851 H 0.0 **** 0.06
35246 C 121.53735649075139 200.6175312856539 76.06317007387196 C 0.0 **** -0.24
35247 H 121.79569167557636 200.1213740805971 76.99853433917193 H 0.0 **** 0.06
35248 H 121.61489761569965 199.9059997854746 75.24118671185505 H 0.0 **** 0.06
35249 H 122.2218250282084 201.44797203238562 75.89194701939016 H 0.0 **** 0.06
35250 H 120.51631886452358 200.99565128946767 76.1229511981891 H 0.0 **** 0.06
35251 C 257.2931916906561 35.103143146372645 182.20413521455646 C 0.0 **** -0.24
35252 H 257.5119639688657 36.00984364596616 182.76866621174463 H 0.0 **** 0.06
35253 H 257.2351827567834 34.255155120691086 182.88633358795408 H 0.0 **** 0.06
35254 H 258.0856824802637 34.929724701509485 181.47499685404722 H 0.0 **** 0.06
35255 H 256.34124664332467 35.218618209146996 181.6849026160657 H 0.0 **** 0.06
35256 C 18.842442875345355 144.42676644266726 72.94842700278716 C 0.0 **** -0.24
35257 H 18.457241494628818 143.45812794585896 73.26675656182888 H 0.0 **** 0.06
35258 H 18.266856890345665 145.22042943180492 73.4253359940189 H 0.0 **** 0.06
35259 H 18.75448928332537 144.5146821198169 71.86510278834396 H 0.0 **** 0.06
35260 H 19.8901867963542 144.51416552068864 73.23556882486 H 0.0 **** 0.06
35261 C 29.449913142934548 120.76668487685305 122.83091656282829 C 0.0 **** -0.24
35262 H 28.555345344469515 121.38587644503193 122.89239503675208 H 0.0 **** 0.06
35263 H 29.18366224416812 119.78085993378176 122.44699730098361 H 0.0 **** 0.06
35264 H 29.889055226870113 120.66310360148677 123.823804524937 H 0.0 **** 0.06
35265 H 30.171898353813873 121.23514408282182 122.16181964987103 H 0.0 **** 0.06
35266 C 81.27561515153513 272.50362761791 45.506682293737924 C 0.0 **** -0.24
35267 H 80.50153149487943 272.90203478311963 44.85026963668315 H 0.0 **** 0.06
35268 H 81.08385611073487 272.8256014198505 46.53112931496818 H 0.0 **** 0.06
35269 H 82.24935567219697 272.87401222357454 45.18571657364669 H 0.0 **** 0.06
35270 H 81.26707382745016 271.4149826113959 45.459912192277585 H 0.0 **** 0.06
35271 C 228.2884912705017 224.25462461407665 210.8448577136934 C 0.0 **** -0.24
35272 H 227.39800903961844 224.6611426729802 211.32449905362208 H 0.0 **** 0.06
35273 H 228.09714089412623 224.11621546984688 209.78037882910692 H 0.0 **** 0.06
35274 H 228.53755408404805 223.29374541067284 211.29646177319862 H 0.0 **** 0.06
35275 H 229.12084956558596 224.94498022240575 210.97808739641033 H 0.0 **** 0.06
35276 C 134.85933626619905 171.82779383339852 246.18511319302598 C 0.0 **** -0.24
35277 H 133.99239642492404 172.24616844114388 245.67362482583155 H 0.0 **** 0.06
35278 H 135.3070613517929 171.05083081223444 245.56479306186395 H 0.0 **** 0.06
35279 H 134.54730670069657 171.39829103324206 247.13778115761036 H 0.0 **** 0.06
35280 H 135.59055808856246 172.6155803566923 246.36520591487752 H 0.0 **** 0.06
35281 C 31.23561870636547 11.010329007098079 119.77791572820243 C 0.0 **** -0.24
35282 H 30.735707254826025 11.487489144698358 118.93547339187094 H 0.0 **** 0.06
35283 H 32.29916257330456 10.907822154139438 119.55940681789446 H 0.0 **** 0.06
35284 H 30.802395193175812 10.024113304713666 119.94524273388768 H 0.0 **** 0.06
35285 H 31.105260237958248 11.62097173702891 120.67115056542889 H 0.0 **** 0.06
35286 C 28.679083871256438 181.39363828337184 199.63256257296086 C 0.0 **** -0.24
35287 H 28.96507317608541 182.39975258682807 199.9406769670482 H 0.0 **** 0.06
35288 H 28.818677998680585 181.28958187814953 198.55627213965664 H 0.0 **** 0.06
35289 H 27.632044739703787 181.2206582741897 199.88284906232258 H 0.0 **** 0.06
35290 H 29.30163531479235 180.66419461856918 200.15174269097656 H 0.0 **** 0.06
35291 C 273.2069818238875 35.88708545850179 65.99213346728675 C 0.0 **** -0.24
35292 H 272.87930504030606 35.855461802395155 67.03121152961194 H 0.0 **** 0.06
35293 H 273.73726859251923 36.821508370516966 65.80728186102272 H 0.0 **** 0.06
35294 H 272.33950819380027 35.82464606872966 65.33585138677199 H 0.0 **** 0.06
35295 H 273.8720858157517 35.04581815127085 65.79524682188935 H 0.0 **** 0.06
35296 C 122.06588668288956 71.68946099474746 210.508158947742 C 0.0 **** -0.24
35297 H 121.06089759366986 71.33218533363649 210.73527210795703 H 0.0 **** 0.06
35298 H 122.22081576785743 71.67494285802553 209.4288964419464 H 0.0 **** 0.06
35299 H 122.79830621359073 71.04159624224297 210.9898551630924 H 0.0 **** 0.06
35300 H 122.18173066878623 72.70791028075766 210.8791691546378 H 0.0 **** 0.06
35301 C 183.78432519752528 82.95797174523673 264.27936860171286 C 0.0 **** -0.24
35302 H 184.57286676198942 82.66281888233567 263.58676024130807 H 0.0 **** 0.06
35303 H 184.22283319876288 83.49849348050094 265.1189961039213 H 0.0 **** 0.06
35304 H 183.2729478393652 82.06844923587786 264.64689173244244 H 0.0 **** 0.06
35305 H 183.07014980611336 83.60047056584344 263.76497174825437 H 0.0 **** 0.06
35306 C 181.62787588699803 182.36489527390353 59.3384611267044 C 0.0 **** -0.24
35307 H 182.3870069326925 182.81671792796396 59.97572691709888 H 0.0 **** 0.06
35308 H 180.83586632031097 183.08958543815004 59.14574535469902 H 0.0 **** 0.06
35309 H 181.20811671904107 181.49164312312246 59.83659792180387 H 0.0 **** 0.06
35310 H 182.08039624949907 182.06172722021267 58.39354324179229 H 0.0 **** 0.06
35311 C 42.235297168385586 293.81162564772836 20.361737219486415 C 0.0 **** -0.24
35312 H 41.34826730389318 294.2989385570683 20.765815795331832 H 0.0 **** 0.06
35313 H 43.02530566748837 294.5504902335492 20.227572973876278 H 0.0 **** 0.06
35314 H 41.99340604828993 293.35773752226754 19.401018424603222 H 0.0 **** 0.06
35315 H 42.572346248298174 293.0398211374399 21.05405583671589 H 0.0 **** 0.06
35316 C 111.02939996727324 297.3111814931849 210.31390529745875 C 0.0 **** -0.24
35317 H 110.00301373848043 296.9713154043422 210.45068504401144 H 0.0 **** 0.06
35318 H 111.20406735928921 298.19405632851317 210.92920577638216 H 0.0 **** 0.06
35319 H 111.19177332487692 297.56122655473104 209.2647209871676 H 0.0 **** 0.06
35320 H 111.71720149081901 296.5193451319135 210.60874353476498 H 0.0 **** 0.06
35321 C 173.16633725414033 240.06181042087167 280.5260572489916 C 0.0 **** -0.24
35322 H 173.97111543917464 240.7759572416541 280.35161888967787 H 0.0 **** 0.06
35323 H 173.00571405419578 239.4690685013962 279.62593972827074 H 0.0 **** 0.06
35324 H 172.25153764720693 240.60001365521921 280.7747705555926 H 0.0 **** 0.06
35325 H 173.4376465552907 239.404558031692 281.35199302641206 H 0.0 **** 0.06
35326 C 82.23734823185748 146.53893864781662 164.0907048785454 C 0.0 **** -0.24
35327 H 82.66686662646163 145.7178921998532 164.66394743184003 H 0.0 **** 0.06
35328 H 81.72244817976966 146.14102103980952 163.21604444998434 H 0.0 **** 0.06
35329 H 83.03141974873813 147.2127666394518 163.769437680755 H 0.0 **** 0.06
35330 H 81.52786849130231 147.084631956605 164.71364601971504 H 0.0 **** 0.06
35331 C 75.0926038658558 75.460264468222 71.70785933883644 C 0.0 **** -0.24
35332 H 75.77260569921299 74.81722627635853 72.26554987582793 H 0.0 **** 0.06
35333 H 75.43007480045185 75.53596373151328 70.67322976808885 H 0.0 **** 0.06
35334 H 75.07887358190516 76.45283760344162 72.15959422410864 H 0.0 **** 0.06
35335 H 74.08831142843474 75.03633080353961 71.73298506002544 H 0.0 **** 0.06
35336 C 246.7522790014265 267.2468715634939 142.8660394376403 C 0.0 **** -0.24
35337 H 246.7686709254754 267.52154528647134 141.81107355989036 H 0.0 **** 0.06
35338 H 247.56085157712096 266.5451467130807 143.07190341280858 H 0.0 **** 0.06
35339 H 245.79651013050244 266.7800241085617 143.10470797451123 H 0.0 **** 0.06
35340 H 246.88179994500516 268.141089603782 143.47597203470826 H 0.0 **** 0.06
35341 C 250.26538198271228 110.95410893461832 81.99739095470238 C 0.0 **** -0.24
35342 H 249.30021613726106 111.43961770074458 81.85151264678689 H 0.0 **** 0.06
35343 H 250.13023591707304 109.87228314081872 82.00161530388783 H 0.0 **** 0.06
35344 H 250.69208588847624 111.27157619529115 82.94850486078428 H 0.0 **** 0.06
35345 H 250.93816939435342 111.2328953531538 81.18522496799415 H 0.0 **** 0.06
35346 C 2.123289939643371 90.75178798655008 140.90507360058228 C 0.0 **** -0.24
35347 H 2.015309228885741 91.11112965597349 139.88200807104818 H 0.0 **** 0.06
35348 H 1.8173985014909277 89.70646300134962 140.95665321931082 H 0.0 **** 0.06
35349 H 1.4954841342792236 91.34778361663916 141.5683378276188 H 0.0 **** 0.06
35350 H 3.1651889186120883 90.8413127657007 141.21243687295524 H 0.0 **** 0.06
35351 C 80.97757618945275 228.55819436839752 223.52566434711423 C 0.0 **** -0.24
35352 H 80.76319771092983 228.0496667148689 224.4656685193242 H 0.0 **** 0.06
35353 H 80.19009111451038 228.33642216905073 222.8052431513741 H 0.0 **** 0.06
35354 H 81.93523306067868 228.21193397378505 223.13669081721446 H 0.0 **** 0.06
35355 H 81.02232218532595 229.63348905689824 223.69681771754227 H 0.0 **** 0.06
35356 C 226.33655094028657 4.98321493018463 65.63482053831189 C 0.0 **** -0.24
35357 H 226.2931436130761 3.8937630230613394 65.62347595258615 H 0.0 **** 0.06
35358 H 225.5535279715561 5.369945155887251 66.28770729473294 H 0.0 **** 0.06
35359 H 226.18883294933858 5.363319697018596 64.62393868978472 H 0.0 **** 0.06
35360 H 227.30961418929124 5.304484760077955 66.00589459863784 H 0.0 **** 0.06
35361 C 217.35090324355087 157.10884869954248 164.168619737886 C 0.0 **** -0.24
35362 H 216.6249273531334 157.46504469095498 164.89914952500584 H 0.0 **** 0.06
35363 H 217.6188099478129 157.92373223455797 163.49543538268057 H 0.0 **** 0.06
35364 H 216.91705354894327 156.29030697519988 163.59366039919678 H 0.0 **** 0.06
35365 H 218.2436501677294 156.7563445359301 164.68567398667756 H 0.0 **** 0.06
35366 C 62.901970054959236 228.4562049924745 26.37722539146847 C 0.0 **** -0.24
35367 H 62.69735169888247 228.66396195642255 27.427379056944062 H 0.0 **** 0.06
35368 H 62.67676691534416 229.3414637979628 25.781457190970855 H 0.0 **** 0.06
35369 H 62.280947536521666 227.62568627530234 26.043452959635943 H 0.0 **** 0.06
35370 H 63.95320680253428 228.19580926667777 26.25726826230465 H 0.0 **** 0.06
35371 C 13.859651365198886 304.8596761881244 112.55322419794666 C 0.0 **** -0.24
35372 H 13.814946305449439 305.9172080000076 112.81358409248813 H 0.0 **** 0.06
35373 H 13.264113015636042 304.28553252720474 113.26345196676064 H 0.0 **** 0.06
35374 H 14.894587263689516 304.52020367957414 112.58935520692947 H 0.0 **** 0.06
35375 H 13.465367513751119 304.71695041198024 111.54769600743359 H 0.0 **** 0.06
35376 C 211.6605397530642 163.17832060406647 204.74065283618074 C 0.0 **** -0.24
35377 H 212.50587211202054 162.510144368066 204.9027887884808 H 0.0 **** 0.06
35378 H 210.8875944437773 162.65705938338692 204.1746619838549 H 0.0 **** 0.06
35379 H 211.9917982462676 164.05407164634317 204.18207672214527 H 0.0 **** 0.06
35380 H 211.2561604874668 163.49353095117772 205.70271062969908 H 0.0 **** 0.06
35381 C 110.83715721078889 200.1194198927534 274.36428912252927 C 0.0 **** -0.24
35382 H 111.76768275196946 199.65750766104088 274.69597973523315 H 0.0 **** 0.06
35383 H 110.75921940363878 201.12114348246502 274.7871944301259 H 0.0 **** 0.06
35384 H 109.99351708977989 199.51646265938882 274.69982342755503 H 0.0 **** 0.06
35385 H 110.82937124584487 200.1816606267688 273.2765737116687 H 0.0 **** 0.06
35386 C 272.12489807564214 60.49404514237108 180.8352143220033 C 0.0 **** -0.24
35387 H 272.3865978422546 59.47707860630487 180.54157738572673 H 0.0 **** 0.06
35388 H 271.12445323635535 60.499258241065974 181.26925729513715 H 0.0 **** 0.06
35389 H 272.1432391249304 61.141508999180274 179.95851111668696 H 0.0 **** 0.06
35390 H 272.84273923765005 60.856024316106925 181.57046563177607 H 0.0 **** 0.06
35391 C 211.3602359500568 76.69563516932297 255.71486545840125 C 0.0 **** -0.24
35392 H 212.13119760343648 77.14634496811894 256.3401183335242 H 0.0 **** 0.06
35393 H 211.1292847425085 77.36470961944002 254.88531842864396 H 0.0 **** 0.06
35394 H 210.46209738939308 76.52970506816746 256.30882982792485 H 0.0 **** 0.06
35395 H 211.720029435541 75.7435712744751 255.3250484030221 H 0.0 **** 0.06
35396 C 42.46308986890972 167.29451618884627 205.74743497667436 C 0.0 **** -0.24
35397 H 42.33056352600474 168.37617624302948 205.76320343258732 H 0.0 **** 0.06
35398 H 43.290862622726706 167.02090946928263 206.4012323293485 H 0.0 **** 0.06
35399 H 42.680155348026574 166.97013225329675 204.7298500962791 H 0.0 **** 0.06
35400 H 41.54984805868298 166.81187762773374 206.09518454795 H 0.0 **** 0.06
35401 C 217.64946028921327 45.38922137079129 39.8910661224422 C 0.0 **** -0.24
35402 H 217.6506413155769 44.523266642345845 39.22822272576016 H 0.0 **** 0.06
35403 H 216.80849362087474 46.035600945049964 39.64312691321027 H 0.0 **** 0.06
35404 H 218.581958128672 45.94147738927393 39.767387396708614 H 0.0 **** 0.06
35405 H 217.5588063367394 45.05494955650488 40.92441725517514 H 0.0 **** 0.06
35406 C 27.404910143629905 146.28259102795627 118.65446521245087 C 0.0 **** -0.24
35407 H 28.31152820243969 146.1560150296363 118.06292014981048 H 0.0 **** 0.06
35408 H 27.22376950555571 145.38104980183735 119.2402124612073 H 0.0 **** 0.06
35409 H 26.55854293502813 146.4605741986132 117.98985412586958 H 0.0 **** 0.06
35410 H 27.525024469288297 147.13334383795979 119.32474840052464 H 0.0 **** 0.06
35411 C 228.53999037414303 279.5440650410767 269.3271338304726 C 0.0 **** -0.24
35412 H 228.9034758019884 279.88994298169877 268.3603468134172 H 0.0 **** 0.06
35413 H 228.33821041725264 278.4740589116736 269.2773133325445 H 0.0 **** 0.06
35414 H 227.62247130164712 280.0749674603284 269.58178599476486 H 0.0 **** 0.06
35415 H 229.294921897755 279.7368663290096 270.0892935298953 H 0.0 **** 0.06
35416 C 163.84815463753966 247.05556411938935 256.2094185682176 C 0.0 **** -0.24
35417 H 164.1079833272612 248.09804090708505 256.3907071356879 H 0.0 **** 0.06
35418 H 164.73941961478351 246.50656835362378 255.90305808410852 H 0.0 **** 0.06
35419 H 163.09809838647124 246.9995825388128 255.42107788758233 H 0.0 **** 0.06
35420 H 163.4474226361965 246.61642516815706 257.1232988649856 H 0.0 **** 0.06
35421 C 125.77362724145888 252.6987363976805 83.98300997059809 C 0.0 **** -0.24
35422 H 125.29555893447514 253.6581992392827 84.18094455640014 H 0.0 **** 0.06
35423 H 125.12348772810552 251.8922390093535 84.32257870767208 H 0.0 **** 0.06
35424 H 126.72324354036974 252.64927041825163 84.5155063087712 H 0.0 **** 0.06
35425 H 125.95127729334715 252.59567464701973 82.91205007909346 H 0.0 **** 0.06
35426 C 66.48432300383632 7.016449823850792 278.6779755709175 C 0.0 **** -0.24
35427 H 66.55450906690663 6.65614415591952 277.65136313443213 H 0.0 **** 0.06
35428 H 65.55984596557286 6.652441307397737 279.1277292386403 H 0.0 **** 0.06
35429 H 66.486596065687 8.106354601439762 278.68037515909094 H 0.0 **** 0.06
35430 H 67.33656134447037 6.650177776467686 279.25085771456327 H 0.0 **** 0.06
35431 C 277.1035619261603 180.55101012071827 243.89154711715796 C 0.0 **** -0.24
35432 H 276.30160056659406 181.14915841010242 243.46095689010247 H 0.0 **** 0.06
35433 H 276.9133306206775 179.49516893710518 243.69868240883778 H 0.0 **** 0.06
35434 H 277.14708111139737 180.7222802807396 244.96734262041093 H 0.0 **** 0.06
35435 H 278.0541332922007 180.8369803056542 243.43964614572332 H 0.0 **** 0.06
35436 C 115.24792592063199 178.761758446579 254.10962548309118 C 0.0 **** -0.24
35437 H 116.20311345309867 178.36297704481194 253.77012214742768 H 0.0 **** 0.06
35438 H 114.76971074594226 179.304347892529 253.29322711432624 H 0.0 **** 0.06
35439 H 115.41399215221796 179.43845900963993 254.94754236583512 H 0.0 **** 0.06
35440 H 114.60371001075316 177.9420158245464 254.42777520494224 H 0.0 **** 0.06
35441 C 80.3769014255924 132.52615469163297 238.2760930640116 C 0.0 **** -0.24
35442 H 81.38246388846355 132.16845322178222 238.05679386747533 H 0.0 **** 0.06
35443 H 80.24709552696328 132.60483227065862 239.3557812690832 H 0.0 **** 0.06
35444 H 79.64666407896542 131.82500592591956 237.87255970227065 H 0.0 **** 0.06
35445 H 80.231101553202 133.5050496285463 237.8197747015576 H 0.0 **** 0.06
35446 C 93.45492400795152 150.43321650599694 6.63750717537954 C 0.0 **** -0.24
35447 H 94.33992750460979 150.43028092612684 7.274291711985214 H 0.0 **** 0.06
35448 H 92.75948375444048 149.66683150898308 6.977356013520165 H 0.0 **** 0.06
35449 H 93.74746006103967 150.22786771833393 5.6078621481283335 H 0.0 **** 0.06
35450 H 92.97411935015819 151.41057909331357 6.6894841745868945 H 0.0 **** 0.06
35451 C 54.181177951967015 10.179707344639425 147.05233697287585 C 0.0 **** -0.24
35452 H 53.922715288030815 11.206631396879672 147.31080049558082 H 0.0 **** 0.06
35453 H 53.51752819362471 9.82709154998895 146.2618779566868 H 0.0 **** 0.06
35454 H 54.069408182800515 9.544842487495274 147.93115690935892 H 0.0 **** 0.06
35455 H 55.212930957763405 10.141150113557373 146.7046871212807 H 0.0 **** 0.06
35456 C 112.45768100364668 260.2665992343036 281.57782082269694 C 0.0 **** -0.24
35457 H 111.87393661119194 259.585586928827 280.9586019006669 H 0.0 **** 0.06
35458 H 112.29209652464124 261.2918396550208 281.24603744111255 H 0.0 **** 0.06
35459 H 113.51690888705096 260.0225213827788 281.48752879367214 H 0.0 **** 0.06
35460 H 112.14953150573058 260.1653621987094 282.6182444372049 H 0.0 **** 0.06
35461 C 285.35437050541753 243.84511930419978 128.18311967434892 C 0.0 **** -0.24
35462 H 284.3854415275415 244.2871152470865 128.41553217978134 H 0.0 **** 0.06
35463 H 285.2598462940322 243.20409633137865 127.30721381924329 H 0.0 **** 0.06
35464 H 285.6960170368587 243.25292488715246 129.03291893096537 H 0.0 **** 0.06
35465 H 286.07490250188766 244.63702236743103 127.97962636100587 H 0.0 **** 0.06
35466 C 88.2042061639253 292.04185914709024 34.43949580508638 C 0.0 **** -0.24
35467 H 88.42135069505755 291.59125884827745 33.47141266300315 H 0.0 **** 0.06
35468 H 87.12828715503346 292.0331555565041 34.61095390239478 H 0.0 **** 0.06
35469 H 88.56670658621047 293.07014379746676 34.44946952379854 H 0.0 **** 0.06
35470 H 88.702457270656 291.47341983281115 35.2241982494628 H 0.0 **** 0.06
35471 C 262.70999733365153 224.08072439045728 116.76119452236014 C 0.0 **** -0.24
35472 H 261.6827893500618 224.2437441449573 116.43400242112091 H 0.0 **** 0.06
35473 H 263.24381444943504 223.50307666068795 116.00619337026785 H 0.0 **** 0.06
35474 H 262.70835354192894 223.53376315779394 117.70440131889649 H 0.0 **** 0.06
35475 H 263.2036255705202 225.04216533482327 116.90017948858093 H 0.0 **** 0.06
35476 C 96.02533045110036 60.632960263170304 195.9449888684357 C 0.0 **** -0.24
35477 H 95.36441591785916 61.363452615818375 195.47811923595907 H 0.0 **** 0.06
35478 H 96.90387078610775 61.14090420286888 196.34354524645977 H 0.0 **** 0.06
35479 H 96.33548825092012 59.898262832106155 195.2027455333087 H 0.0 **** 0.06
35480 H 95.49653740989228 60.13112340207127 196.75494259031353 H 0.0 **** 0.06
35481 C 109.254930071519 207.2169893431148 80.04586733412327 C 0.0 **** -0.24
35482 H 110.06916639586166 207.92364384573386 79.88320825774412 H 0.0 **** 0.06
35483 H 108.49330155071081 207.35730163935267 79.27889810049714 H 0.0 **** 0.06
35484 H 108.81712583803451 207.38773086588662 81.02916898352026 H 0.0 **** 0.06
35485 H 109.64252537717564 206.19935247896314 79.99268421528421 H 0.0 **** 0.06
35486 C 219.58412432476985 53.307113604716704 103.44687353784303 C 0.0 **** -0.24
35487 H 218.8954101364214 53.223536536148316 102.60618216153898 H 0.0 **** 0.06
35488 H 220.580633641652 53.54858125087375 103.0770345090217 H 0.0 **** 0.06
35489 H 219.6151244564914 52.360654018282645 103.98698241080427 H 0.0 **** 0.06
35490 H 219.24433788279111 54.097862713115205 104.11678052968114 H 0.0 **** 0.06
35491 C 244.74204496103124 164.62157216971212 220.59023654848954 C 0.0 **** -0.24
35492 H 244.31805649065143 163.6183513582119 220.65090069264232 H 0.0 **** 0.06
35493 H 244.93718439575017 164.87090636197678 219.54768227781042 H 0.0 **** 0.06
35494 H 245.67581699621354 164.65527265468484 221.15311968171943 H 0.0 **** 0.06
35495 H 244.0378221880861 165.3395262214853 221.01159461388903 H 0.0 **** 0.06
35496 C 229.16677285916222 59.03219799414751 191.33789502059113 C 0.0 **** -0.24
35497 H 228.21163696225972 58.5553224749234 191.11811215708718 H 0.0 **** 0.06
35498 H 229.02758954924494 59.78364879665594 192.11610068401137 H 0.0 **** 0.06
35499 H 229.5511012122467 59.5094733564639 190.43614156315948 H 0.0 **** 0.06
35500 H 229.8773872991403 58.2806885010682 191.68244828358706 H 0.0 **** 0.06
35501 C 245.64599862963695 195.97396341200522 274.2950113781061 C 0.0 **** -0.24
35502 H 246.5829387785019 195.4872185032147 274.0250171203426 H 0.0 **** 0.06
35503 H 245.525033737266 196.88131233247964 273.7026189536059 H 0.0 **** 0.06
35504 H 245.66335934485397 196.23124360351562 275.3538224359401 H 0.0 **** 0.06
35505 H 244.81489230967773 195.29707958941532 274.0987540915231 H 0.0 **** 0.06
35506 C 155.99560988388117 172.51467835131825 40.03715755217229 C 0.0 **** -0.24
35507 H 155.7815228228132 171.47761062037773 39.779363835595916 H 0.0 **** 0.06
35508 H 155.09875361286606 172.97973161474584 40.446544461833696 H 0.0 **** 0.06
35509 H 156.3078463852616 173.05416394698284 39.142282692329616 H 0.0 **** 0.06
35510 H 156.7933329411672 172.5473707142599 40.7784378486389 H 0.0 **** 0.06
35511 C 222.42457061513514 27.509533229614277 186.8266365454952 C 0.0 **** -0.24
35512 H 222.42430321553536 26.441434828152723 186.60888649636632 H 0.0 **** 0.06
35513 H 223.30391945337087 27.758236337533475 187.4209291801431 H 0.0 **** 0.06
35514 H 221.52412560062396 27.7661589533449 187.38448272731222 H 0.0 **** 0.06
35515 H 222.44570876878987 28.07062228481786 185.89260142909325 H 0.0 **** 0.06
35516 C 113.46009145112853 66.61539614983144 225.31767716712275 C 0.0 **** -0.24
35517 H 114.4502051640647 66.37827877484523 225.70688088697594 H 0.0 **** 0.06
35518 H 113.55493586439704 67.04356541113904 224.31920734978956 H 0.0 **** 0.06
35519 H 112.97322442652123 67.33495283535083 225.97704734632842 H 0.0 **** 0.06
35520 H 112.86200034953109 65.7047875779908 225.2675730853971 H 0.0 **** 0.06
35521 C 81.65528101315655 97.01206068936472 110.22966449362912 C 0.0 **** -0.24
35522 H 81.96638180239842 98.05506755235115 110.16686851577376 H 0.0 **** 0.06
35523 H 82.17505057575411 96.43232790822978 109.4672467264931 H 0.0 **** 0.06
35524 H 80.57880412667376 96.94395149856459 110.06843792342343 H 0.0 **** 0.06
35525 H 81.90032666788542 96.6190569770122 111.21622622903666 H 0.0 **** 0.06
35526 C 216.97867474729944 265.5229878034186 250.49573785433876 C 0.0 **** -0.24
35527 H 216.9270224225134 265.3023862015792 249.42950602170782 H 0.0 **** 0.06
35528 H 216.03107911187385 265.26134929051744 250.9676691573623 H 0.0 **** 0.06
35529 H 217.17442649605982 266.5858783050075 250.63716056898642 H 0.0 **** 0.06
35530 H 217.7824617050223 264.94114116363767 250.94791964161726 H 0.0 **** 0.06
35531 C 261.9126110905113 294.46856064092367 12.83675067391792 C 0.0 **** -0.24
35532 H 262.3887697923758 295.4188534019286 12.597176249562622 H 0.0 **** 0.06
35533 H 260.88304656270884 294.47799317442076 12.477648648590389 H 0.0 **** 0.06
35534 H 261.920083020134 294.32078691778463 13.916775418105274 H 0.0 **** 0.06
35535 H 262.45815069360117 293.65786891028006 12.354895089338086 H 0.0 **** 0.06
35536 C 12.907450296623495 19.66949349420274 81.50553244740348 C 0.0 **** -0.24
35537 H 12.72308681254816 20.552252525171255 80.89251617261394 H 0.0 **** 0.06
35538 H 11.97897004868139 19.36328330873347 81.98895163184432 H 0.0 **** 0.06
35539 H 13.652725892599278 19.9051343927286 82.26524686943512 H 0.0 **** 0.06
35540 H 13.27402411102878 18.86006453200855 80.87423636502814 H 0.0 **** 0.06
35541 C 132.44600510320694 281.920656254104 38.094058824201596 C 0.0 **** -0.24
35542 H 131.84545076593872 282.6750950486079 37.58536741915884 H 0.0 **** 0.06
35543 H 132.53781387896314 282.1799127180764 39.149340582665644 H 0.0 **** 0.06
35544 H 133.4364280782218 281.8796903504847 37.642462247290155 H 0.0 **** 0.06
35545 H 131.96302692275526 280.9478918759069 37.99961893190047 H 0.0 **** 0.06
35546 C 97.35667493818198 110.54551346010294 163.93353666987207 C 0.0 **** -0.24
35547 H 96.8236387209455 109.61789126200915 164.1450379801442 H 0.0 **** 0.06
35548 H 97.72796330719649 110.9707047728356 164.86689386419215 H 0.0 **** 0.06
35549 H 96.67966294751409 111.25191873910248 163.45523479099575 H 0.0 **** 0.06
35550 H 98.1962979004258 110.33851147197524 163.2699948037221 H 0.0 **** 0.06
35551 C 28.92332292564717 247.61556804484673 170.45435199083096 C 0.0 **** -0.24
35552 H 29.73729421691303 247.33408642801393 169.78733911243245 H 0.0 **** 0.06
35553 H 27.98185846527906 247.6073757486633 169.90390043799601 H 0.0 **** 0.06
35554 H 29.10571516792257 248.61576568141717 170.84760014227766 H 0.0 **** 0.06
35555 H 28.867917581810502 246.90530559788326 171.279862656018 H 0.0 **** 0.06
35556 C 115.30280911231739 109.66750961603893 10.694904447159459 C 0.0 **** -0.24
35557 H 114.95859204689489 108.67733256300045 10.990396168048306 H 0.0 **** 0.06
35558 H 115.00077680377998 110.39688160943544 11.447581892762884 H 0.0 **** 0.06
35559 H 114.86284482505994 109.93255305016905 9.733679316189367 H 0.0 **** 0.06
35560 H 116.38981169894856 109.66314630425177 10.609127457638351 H 0.0 **** 0.06
35561 C 86.02633438697458 14.380071099177002 117.52548839133271 C 0.0 **** -0.24
35562 H 86.7041316491352 13.776695150949465 116.92109556425677 H 0.0 **** 0.06
35563 H 85.98310403538281 15.392506508514003 117.12171489445538 H 0.0 **** 0.06
35564 H 86.3892906811387 14.414013518695725 118.55263248530301 H 0.0 **** 0.06
35565 H 85.0309578046103 13.93821780578007 117.50624083103492 H 0.0 **** 0.06
35566 C 177.96245956500297 281.2194931155953 139.61384007319725 C 0.0 **** -0.24
35567 H 176.9087220346604 281.49971246180166 139.6213692751725 H 0.0 **** 0.06
35568 H 178.570387094495 282.10114527610375 139.4117313523554 H 0.0 **** 0.06
35569 H 178.13412251609395 280.47254731118863 138.83866838429486 H 0.0 **** 0.06
35570 H 178.23342685482703 280.805192158114 140.58429758839588 H 0.0 **** 0.06
35571 C 270.9413178676917 230.25548477010759 263.4303429158583 C 0.0 **** -0.24
35572 H 271.526433074087 229.33650204454074 263.4230429109256 H 0.0 **** 0.06
35573 H 271.37801774023296 230.958005958164 264.1404355529629 H 0.0 **** 0.06
35574 H 269.91637877589073 230.03117149986446 263.7242268397095 H 0.0 **** 0.06
35575 H 270.94675939615144 230.69693107280315 262.4332441714582 H 0.0 **** 0.06
35576 C 139.55442560601605 83.86909775258056 160.74285985471926 C 0.0 **** -0.24
35577 H 140.17201122993708 82.97014652273555 160.75910919389713 H 0.0 **** 0.06
35578 H 139.95913900703567 84.57535824286572 160.0182009479571 H 0.0 **** 0.06
35579 H 139.55194952523138 84.32442261248161 161.7331928748942 H 0.0 **** 0.06
35580 H 138.53502804940376 83.60341888510936 160.46218083367938 H 0.0 **** 0.06
35581 C 207.42642849302837 204.10133402143816 4.0864220954730825 C 0.0 **** -0.24
35582 H 207.92574718659978 203.14018774690487 3.96327165099531 H 0.0 **** 0.06
35583 H 206.3456597946589 203.95348855140702 4.068897908718981 H 0.0 **** 0.06
35584 H 207.7149363296435 204.76829413312527 3.2744308489568255 H 0.0 **** 0.06
35585 H 207.7173376597901 204.54153656957521 5.040321421542345 H 0.0 **** 0.06
35586 C 223.17245033871762 7.634896123333121 204.9012184584173 C 0.0 **** -0.24
35587 H 224.0179202920122 7.077407210545971 205.3033465681225 H 0.0 **** 0.06
35588 H 222.7828092854847 7.120823087729605 204.02277203882335 H 0.0 **** 0.06
35589 H 223.49769858864204 8.636847663949311 204.62203745258762 H 0.0 **** 0.06
35590 H 222.39083503944397 7.704599739609421 205.65888612144045 H 0.0 **** 0.06
35591 C 9.254401756334659 148.04833291335652 46.025790326030915 C 0.0 **** -0.24
35592 H 9.68385086516713 149.0096016789259 45.74323205927931 H 0.0 **** 0.06
35593 H 9.220683867393078 147.39448504906508 45.15395294027388 H 0.0 **** 0.06
35594 H 8.244559244043842 148.2012458834338 46.40558905006998 H 0.0 **** 0.06
35595 H 9.86909635390306 147.5900154193627 46.80115796841082 H 0.0 **** 0.06
35596 C 142.69668738777685 210.5373195538861 220.02096990220866 C 0.0 **** -0.24
35597 H 141.90119001488583 210.5084461686266 220.7648520181187 H 0.0 **** 0.06
35598 H 143.01120055620564 211.56916573886423 219.86581428499582 H 0.0 **** 0.06
35599 H 142.33154707751305 210.12258459251478 219.08107266397138 H 0.0 **** 0.06
35600 H 143.54395763184004 209.94858965596032 220.37370435517167 H 0.0 **** 0.06
35601 C 140.69925542166186 228.63644313139105 234.8275268956309 C 0.0 **** -0.24
35602 H 140.1221180029109 229.40047157697936 235.34774154480388 H 0.0 **** 0.06
35603 H 141.59273759553264 229.08722979710373 234.39578468538042 H 0.0 **** 0.06
35604 H 140.09243216987434 228.20030794991155 234.03448213573301 H 0.0 **** 0.06
35605 H 140.98956317679762 227.85800994223584 235.53348123519476 H 0.0 **** 0.06
35606 C 106.89492187153516 178.74937569739342 105.23691641082101 C 0.0 **** -0.24
35607 H 107.05120394402189 178.1808821331025 104.32019271710516 H 0.0 **** 0.06
35608 H 107.66703718759476 179.51370381941905 105.32738636449648 H 0.0 **** 0.06
35609 H 106.9457765080588 178.07814442425143 106.09385849233621 H 0.0 **** 0.06
35610 H 105.91437728787179 179.22533008206858 105.2060927686577 H 0.0 **** 0.06
35611 C 194.82711580287923 90.28036443526392 157.89945007885842 C 0.0 **** -0.24
35612 H 194.14115616711086 90.66513327540773 157.14507307380342 H 0.0 **** 0.06
35613 H 195.24949020573592 91.11136277629555 158.46374784400473 H 0.0 **** 0.06
35614 H 195.62932002273084 89.7256628854717 157.41166638191214 H 0.0 **** 0.06
35615 H 194.2875857621342 89.61720494650123 158.5764265794461 H 0.0 **** 0.06
35616 C 46.07170783615328 270.4553733923997 313.5761086905277 C 0.0 **** -0.24
35617 H 45.900126316924286 271.3690181078515 313.0067972932875 H 0.0 **** 0.06
35618 H 45.56832816523115 270.529175195615 314.5400311719307 H 0.0 **** 0.06
35619 H 47.141924408253146 270.321498438349 313.7331479681741 H 0.0 **** 0.06
35620 H 45.67624917895051 269.60359798388276 313.0220640557676 H 0.0 **** 0.06
35621 C 239.93583873313872 64.78624976090839 204.00338092235467 C 0.0 **** -0.24
35622 H 239.68058972084881 63.78669649789674 203.65153356076587 H 0.0 **** 0.06
35623 H 241.00553024366798 64.9543588026813 203.87689466181905 H 0.0 **** 0.06
35624 H 239.67484874987642 64.87781599319248 205.05752806672763 H 0.0 **** 0.06
35625 H 239.38048674958182 65.52685430370897 203.42620205559228 H 0.0 **** 0.06
35626 C 19.083036614088044 219.18519916404932 107.098830289803 C 0.0 **** -0.24
35627 H 19.16662616869985 218.13498053440014 106.81932185326002 H 0.0 **** 0.06
35628 H 19.53500163966899 219.3373295007392 108.07871922431619 H 0.0 **** 0.06
35629 H 18.03148759446833 219.46860268304812 107.13373660792305 H 0.0 **** 0.06
35630 H 19.59972979583688 219.79874904947462 106.36034599951947 H 0.0 **** 0.06
35631 C 265.07236861390317 210.20369191242096 116.8833760746052 C 0.0 **** -0.24
35632 H 265.4511697246306 211.2162687131998 117.02120310246383 H 0.0 **** 0.06
35633 H 264.9895078453935 209.9888446142633 115.81772412210125 H 0.0 **** 0.06
35634 H 264.09125757120466 210.11513964497016 117.34935243162107 H 0.0 **** 0.06
35635 H 265.75902161894106 209.49286589213642 117.34551499264668 H 0.0 **** 0.06
35636 C 193.42261642879504 250.77991785711936 113.24097718615323 C 0.0 **** -0.24
35637 H 192.71695561517726 251.58136291360347 113.02182429799294 H 0.0 **** 0.06
35638 H 194.17804515640756 250.73641663607359 112.45581068439759 H 0.0 **** 0.06
35639 H 192.89067886833925 249.83019681859216 113.2867125752851 H 0.0 **** 0.06
35640 H 193.9048156258744 250.97310869482925 114.19958898846528 H 0.0 **** 0.06
35641 C 42.61592286579332 67.78224125890324 136.1958376001877 C 0.0 **** -0.24
35642 H 42.69351864643818 67.77409601951007 135.10916980615735 H 0.0 **** 0.06
35643 H 42.720681561010906 68.80494452058852 136.5598637120943 H 0.0 **** 0.06
35644 H 43.40455367720972 67.16167652057936 136.621251749444 H 0.0 **** 0.06
35645 H 41.64396986228877 67.38826548485349 136.4928136907914 H 0.0 **** 0.06
35646 C 50.923370947043594 24.880974121135694 240.43970788779112 C 0.0 **** -0.24
35647 H 51.74191426513346 24.63965011000721 239.76113371295446 H 0.0 **** 0.06
35648 H 51.013577569901514 25.91893000790168 240.76112614396155 H 0.0 **** 0.06
35649 H 50.967084186243255 24.225522983271617 241.30866087949767 H 0.0 **** 0.06
35650 H 49.972792140575166 24.740779742696304 239.92499940793624 H 0.0 **** 0.06
35651 C 251.2045062651115 11.150115580921153 306.7268096095666 C 0.0 **** -0.24
35652 H 250.2875270906449 11.44838356341289 306.21738173470135 H 0.0 **** 0.06
35653 H 251.62348977959735 12.008563813403228 307.25176369944074 H 0.0 **** 0.06
35654 H 251.92335666681964 10.783828788515024 305.99454365295367 H 0.0 **** 0.06
35655 H 250.98012855454732 10.360391516407347 307.4438513762181 H 0.0 **** 0.06
35656 C 307.8888723568377 70.12812781983902 102.65915413090292 C 0.0 **** -0.24
35657 H 308.01133225374326 69.09223111559527 102.9750685825002 H 0.0 **** 0.06
35658 H 307.97964874833724 70.7853813761682 103.52453252437172 H 0.0 **** 0.06
35659 H 306.90544311120084 70.25596385740752 102.20682215528953 H 0.0 **** 0.06
35660 H 308.65942870660734 70.3780360217965 101.93043803496823 H 0.0 **** 0.06
35661 C 222.12254279474877 272.8681644349743 266.239441808242 C 0.0 **** -0.24
35662 H 222.4253156434287 271.8612758003621 265.95110306313154 H 0.0 **** 0.06
35663 H 221.25797056326365 272.8118245054086 266.9012114215182 H 0.0 **** 0.06
35664 H 221.86110254763594 273.4371270981085 265.3478680143215 H 0.0 **** 0.06
35665 H 222.94465787730024 273.3605328606327 266.75721730659274 H 0.0 **** 0.06
35666 C 298.40992776191405 191.17560208565953 268.18162987342015 C 0.0 **** -0.24
35667 H 297.3691185079718 191.17585552758248 267.8582162348445 H 0.0 **** 0.06
35668 H 298.51914292594927 190.52503108773885 269.0494805377625 H 0.0 **** 0.06
35669 H 298.7082865340068 192.19017644066753 268.4472165351283 H 0.0 **** 0.06
35670 H 299.04218278589906 190.81148451155372 267.371746346343 H 0.0 **** 0.06
35671 C 206.77189066367458 170.14124869234496 220.14300686544664 C 0.0 **** -0.24
35672 H 207.50418057320013 169.40727277179064 219.80484981336195 H 0.0 **** 0.06
35673 H 207.08884246367518 171.13856810870027 219.83527988284015 H 0.0 **** 0.06
35674 H 206.69436438386975 170.10395862559318 221.22889013255323 H 0.0 **** 0.06
35675 H 205.80131999341125 169.9167619074605 219.7003178000666 H 0.0 **** 0.06
35676 C 285.9511293397156 226.72906352132304 238.86383496846219 C 0.0 **** -0.24
35677 H 286.5306921416295 227.53544484025775 239.31187009157722 H 0.0 **** 0.06
35678 H 286.3298642766402 226.52252165962045 237.86228633669344 H 0.0 **** 0.06
35679 H 284.9036136824758 227.02454242693838 238.8026180165233 H 0.0 **** 0.06
35680 H 286.04088940190326 225.83290672144213 239.47715011390818 H 0.0 **** 0.06
35681 C 172.7278769054917 113.87272249220987 110.51625157898934 C 0.0 **** -0.24
35682 H 171.7528673941382 113.76471872861725 110.04024843478163 H 0.0 **** 0.06
35683 H 172.96246298550994 112.96489544556161 111.07256693642665 H 0.0 **** 0.06
35684 H 172.70598107863822 114.72233974083807 111.1988953034693 H 0.0 **** 0.06
35685 H 173.48738363008044 114.03892780704234 109.75225178915116 H 0.0 **** 0.06
35686 C 146.41644737648187 281.69016565185876 53.34392940337929 C 0.0 **** -0.24
35687 H 145.99578219329723 281.7741487994323 54.345758721473715 H 0.0 **** 0.06
35688 H 145.63337683607688 281.3949644995686 52.64529705381739 H 0.0 **** 0.06
35689 H 147.20596670623647 280.93789538706096 53.344107616303916 H 0.0 **** 0.06
35690 H 146.8312152841161 282.6513631914893 53.04241121671336 H 0.0 **** 0.06
35691 C 87.15447529662887 165.6055993040011 265.44177930365856 C 0.0 **** -0.24
35692 H 87.89178601955359 166.13967010276104 264.84314951345146 H 0.0 **** 0.06
35693 H 86.73035758514052 164.79156061949374 264.8546851605524 H 0.0 **** 0.06
35694 H 86.36143901453778 166.2925038017641 265.73882142209544 H 0.0 **** 0.06
35695 H 87.63524377492351 165.20021562238594 266.33211412337835 H 0.0 **** 0.06
35696 C 285.3354190283183 147.28548102116733 125.03081976866153 C 0.0 **** -0.24
35697 H 285.9600240498105 146.69160420891157 125.6990871214378 H 0.0 **** 0.06
35698 H 285.2328116757561 146.76924450955838 124.0753330059625 H 0.0 **** 0.06
35699 H 285.7982676039387 148.25866745678172 124.87088008592073 H 0.0 **** 0.06
35700 H 284.35084297210335 147.4202208489483 125.47835805426004 H 0.0 **** 0.06
35701 C 149.27660177544112 145.87049085372286 214.4334170206091 C 0.0 **** -0.24
35702 H 149.41848769589052 145.4558812701954 213.43557603776566 H 0.0 **** 0.06
35703 H 148.76953657665308 146.83213913551683 214.35797290974276 H 0.0 **** 0.06
35704 H 150.24746824860637 146.0079464535147 214.91111002490504 H 0.0 **** 0.06
35705 H 148.67331892225462 145.18581821151216 215.02857625709345 H 0.0 **** 0.06
35706 C 84.70281425601937 255.64108619635405 145.19392987863523 C 0.0 **** -0.24
35707 H 83.76461605274335 255.25037491037784 144.7993818152904 H 0.0 **** 0.06
35708 H 84.53353533135868 256.05621376539335 146.1871192331486 H 0.0 **** 0.06
35709 H 85.07732422917059 256.4222633246306 144.53190274381421 H 0.0 **** 0.06
35710 H 85.43454869252528 254.83572758299107 145.25546496620763 H 0.0 **** 0.06
35711 C 293.2546696738416 32.11539580958427 122.87742827589634 C 0.0 **** -0.24
35712 H 293.3441732374456 31.461642037660823 122.0099546642534 H 0.0 **** 0.06
35713 H 293.13664099239753 31.509770237537907 123.7771995005323 H 0.0 **** 0.06
35714 H 292.38420429466765 32.760543250743694 122.75744013583031 H 0.0 **** 0.06
35715 H 294.1515540880837 32.72732024958887 122.96623239189296 H 0.0 **** 0.06
35716 C 277.15257371567986 131.64690886408988 162.15083703218266 C 0.0 **** -0.24
35717 H 277.0793230764122 130.6225140927575 161.78635514788544 H 0.0 **** 0.06
35718 H 276.5370249994618 132.29786149741352 161.5306323938338 H 0.0 **** 0.06
35719 H 278.1912210661295 131.9757866268978 162.10500633570433 H 0.0 **** 0.06
35720 H 276.8030121694692 131.69090903595497 163.1826190163896 H 0.0 **** 0.06
35721 C 40.88166072901382 222.7776035244483 277.8120460446096 C 0.0 **** -0.24
35722 H 41.07804661291567 222.98102101357006 276.7592814648619 H 0.0 **** 0.06
35723 H 40.515443469274885 223.68361088627574 278.29488963100664 H 0.0 **** 0.06
35724 H 41.802266402080164 222.4532233434539 278.2961173597626 H 0.0 **** 0.06
35725 H 40.13112804460337 221.99257585649136 277.8954582320492 H 0.0 **** 0.06
35726 C 266.0894210705625 176.85730005847108 237.02255446207533 C 0.0 **** -0.24
35727 H 265.8062620189543 176.3956544549318 236.0763348044217 H 0.0 **** 0.06
35728 H 266.75008893005116 176.18439296368473 237.57079745479302 H 0.0 **** 0.06
35729 H 265.19517372444267 177.05083342571157 237.61417838433113 H 0.0 **** 0.06
35730 H 266.606616647897 177.7962259165356 236.82772039685386 H 0.0 **** 0.06
35731 C 61.93475193886215 48.95501531498229 167.44260968326887 C 0.0 **** -0.24
35732 H 61.69350187924786 49.99478630141496 167.6602723767781 H 0.0 **** 0.06
35733 H 62.99601516669671 48.86865748251253 167.21142354219518 H 0.0 **** 0.06
35734 H 61.3476640381769 48.617559418621425 166.58845357051678 H 0.0 **** 0.06
35735 H 61.69972851748952 48.33854126210608 168.31086430500181 H 0.0 **** 0.06
35736 C 115.73788628696116 153.00230817375996 192.21517458930884 C 0.0 **** -0.24
35737 H 115.45522865033251 153.93452800393436 191.72699716790174 H 0.0 **** 0.06
35738 H 115.76120725788496 152.19928227127087 191.4781807737154 H 0.0 **** 0.06
35739 H 115.01029251196064 152.76327910327404 192.99103202060354 H 0.0 **** 0.06
35740 H 116.72571720785123 153.11244372504092 192.66480287026758 H 0.0 **** 0.06
35741 C 100.79083522975245 13.281284509457024 205.48159555796656 C 0.0 **** -0.24
35742 H 101.04896500950389 12.509478469079284 206.20684020886154 H 0.0 **** 0.06
35743 H 100.48903304853681 12.812788157658701 204.54435601243455 H 0.0 **** 0.06
35744 H 101.65701133630114 13.919097161624691 205.3063319802235 H 0.0 **** 0.06
35745 H 99.96886704224426 13.883451814567294 205.86807347851317 H 0.0 **** 0.06
35746 C 27.574225736051687 282.78710320980036 156.37688741626818 C 0.0 **** -0.24
35747 H 27.390224858043666 281.7286343139195 156.5598453934452 H 0.0 **** 0.06
35748 H 28.644404830505664 282.95220122774356 156.246558192308 H 0.0 **** 0.06
35749 H 27.217682313692904 283.36957062709234 157.22668671476418 H 0.0 **** 0.06
35750 H 27.045896450212922 283.0976625381525 155.47593491163713 H 0.0 **** 0.06
35751 C 66.33727499591615 117.01583517677142 300.74807798640734 C 0.0 **** -0.24
35752 H 66.57024928826567 117.51741675581815 301.6874129900653 H 0.0 **** 0.06
35753 H 66.09368957655553 115.97131621549875 300.9452140763911 H 0.0 **** 0.06
35754 H 67.20016590055337 117.06964554550754 300.08396724057525 H 0.0 **** 0.06
35755 H 65.48476348867561 117.50586692163287 300.2771763284344 H 0.0 **** 0.06
35756 C 307.99113838791527 186.19777645528944 95.3215126971933 C 0.0 **** -0.24
35757 H 309.0229596577322 186.5489860645518 95.34830878353691 H 0.0 **** 0.06
35758 H 307.9664430212079 185.16880895545347 94.96365047489962 H 0.0 **** 0.06
35759 H 307.4101220930428 186.8307431144405 94.65004220050258 H 0.0 **** 0.06
35760 H 307.565429835784 186.24536015134925 96.32425263077604 H 0.0 **** 0.06
35761 C 161.14280092472808 41.50013704933275 169.18983280099474 C 0.0 **** -0.24
35762 H 161.84221848921976 40.69887846058754 169.42480958023566 H 0.0 **** 0.06
35763 H 160.12724413291562 41.17469564008371 169.4180840822226 H 0.0 **** 0.06
35764 H 161.2163669409083 41.748413786780816 168.131548317517 H 0.0 **** 0.06
35765 H 161.38438757986364 42.37978943479226 169.78797402760068 H 0.0 **** 0.06
35766 C 220.9565898139352 296.15065007623275 140.04751390839758 C 0.0 **** -0.24
35767 H 220.78097536321098 296.22785362186755 141.1199133309548 H 0.0 **** 0.06
35768 H 220.1400974483016 296.6358555500225 139.5102483996617 H 0.0 **** 0.06
35769 H 221.0059594812809 295.10048166515094 139.76217150357593 H 0.0 **** 0.06
35770 H 221.8979042413497 296.6410308545339 139.7973995436311 H 0.0 **** 0.06
35771 C 300.3620467767992 95.39143102739828 205.10378076125966 C 0.0 **** -0.24
35772 H 300.47443102066734 95.26745214543459 204.02649696834573 H 0.0 **** 0.06
35773 H 299.3046363350289 95.3597210311849 205.36502007761732 H 0.0 **** 0.06
35774 H 300.7826628219803 96.35084667979271 205.40436368960837 H 0.0 **** 0.06
35775 H 300.8887605225979 94.58717092437561 205.61860274216338 H 0.0 **** 0.06
35776 C 68.29178353573775 282.8560272662054 132.08240397192856 C 0.0 **** -0.24
35777 H 69.22371168654135 283.35427654240704 132.3518477249251 H 0.0 **** 0.06
35778 H 67.62707605049101 282.8371637895019 132.94621151958245 H 0.0 **** 0.06
35779 H 68.50522126843583 281.83509600332076 131.7649531205381 H 0.0 **** 0.06
35780 H 67.81225661158899 283.3977606630839 131.26743084144366 H 0.0 **** 0.06
35781 C 220.09103253913142 227.66675174444407 67.56447790990117 C 0.0 **** -0.24
35782 H 219.05190587721873 227.9837235334036 67.47894421446082 H 0.0 **** 0.06
35783 H 220.72523797334986 228.34558845858652 66.99228341218404 H 0.0 **** 0.06
35784 H 220.19621919120917 226.65470771075485 67.17338202304038 H 0.0 **** 0.06
35785 H 220.39123659067803 227.68429921702807 68.61227319739575 H 0.0 **** 0.06
35786 C 74.7223470035747 283.07815479558553 269.60768053156903 C 0.0 **** -0.24
35787 H 75.63294263126821 283.4804528480172 269.16425948139147 H 0.0 **** 0.06
35788 H 73.98733211270294 283.8761659704373 269.71421985002337 H 0.0 **** 0.06
35789 H 74.95009353369673 282.66046893111843 270.5891800953222 H 0.0 **** 0.06
35790 H 74.31980495070374 282.2960321252276 268.9650956206975 H 0.0 **** 0.06
35791 C 233.21715996341777 287.4658341609792 92.52829773470725 C 0.0 **** -0.24
35792 H 233.11675752763895 288.4754810843946 92.13132949147385 H 0.0 **** 0.06
35793 H 232.65562298342613 286.77160948368544 91.9029596913609 H 0.0 **** 0.06
35794 H 232.82734871860018 287.4354302442342 93.54619416814228 H 0.0 **** 0.06
35795 H 234.27001293440404 287.1817799917669 92.53439735987155 H 0.0 **** 0.06
35796 C 235.37866202155874 110.65411909880913 15.490113749558446 C 0.0 **** -0.24
35797 H 236.00219044107422 111.38882967284238 15.998045856789915 H 0.0 **** 0.06
35798 H 235.89770923089475 110.28724277290925 14.604222611151386 H 0.0 **** 0.06
35799 H 234.43760716932348 111.11843154520685 15.193730431458846 H 0.0 **** 0.06
35800 H 235.17651142112192 109.82122477539363 16.164245439133495 H 0.0 **** 0.06
35801 C 56.97221443820513 285.33623998921655 126.5046129277114 C 0.0 **** -0.24
35802 H 57.79005016152769 285.8189813450186 127.03861279499597 H 0.0 **** 0.06
35803 H 56.77329157307588 285.8771548812582 125.57933452413528 H 0.0 **** 0.06
35804 H 56.07875366871144 285.34123686323363 127.12890551478779 H 0.0 **** 0.06
35805 H 57.24815437359155 284.30726058279845 126.27257653782948 H 0.0 **** 0.06
35806 C 228.88326064165742 30.97712760641042 260.16847272744644 C 0.0 **** -0.24
35807 H 229.70439696184025 31.285140413575675 260.81629879009785 H 0.0 **** 0.06
35808 H 229.06691798061155 31.334614033607636 259.15471003761814 H 0.0 **** 0.06
35809 H 227.95047505542743 31.40065166191411 260.5391501733387 H 0.0 **** 0.06
35810 H 228.8134547507379 29.88916553629278 260.1638875819698 H 0.0 **** 0.06
35811 C 171.74578285876925 211.95708160671387 172.05446000278096 C 0.0 **** -0.24
35812 H 172.74049854827803 212.40104913719236 171.99466127325536 H 0.0 **** 0.06
35813 H 171.32069575315182 211.8846563698982 171.05320983963497 H 0.0 **** 0.06
35814 H 171.10628494225972 212.58254525162496 172.67739498662888 H 0.0 **** 0.06
35815 H 171.81821034985194 210.96207591187374 172.49189944899757 H 0.0 **** 0.06
35816 C 11.322944585676666 60.9751563560383 6.983070731808965 C 0.0 **** -0.24
35817 H 10.37486001583622 61.014160913575495 7.519740690167453 H 0.0 **** 0.06
35818 H 11.926300108656946 61.84288332383008 7.251166564718815 H 0.0 **** 0.06
35819 H 11.132530458721888 60.983088469601086 5.909852724208079 H 0.0 **** 0.06
35820 H 11.85548770229397 60.06366627902298 7.251933172635745 H 0.0 **** 0.06
35821 C 200.13577080645365 105.17885602961357 5.406144807215753 C 0.0 **** -0.24
35822 H 200.46483370325325 104.48235355556633 4.634970855659304 H 0.0 **** 0.06
35823 H 199.07713253849323 105.40199440170917 5.267178472546021 H 0.0 **** 0.06
35824 H 200.71356617314188 106.10020611522262 5.333523298730128 H 0.0 **** 0.06
35825 H 200.28698358771453 104.73134532160861 6.38823401335722 H 0.0 **** 0.06
35826 C 54.44080432939748 259.0792162364426 299.83675591878864 C 0.0 **** -0.24
35827 H 53.718688191190495 259.7751808305837 299.40911013163264 H 0.0 **** 0.06
35828 H 54.31053171921704 258.09676541309216 299.38221793385094 H 0.0 **** 0.06
35829 H 54.28292936534123 259.0067795746763 300.9119576520778 H 0.0 **** 0.06
35830 H 55.450597846132524 259.4393151545243 299.64101841410815 H 0.0 **** 0.06
35831 C 20.02273707847459 165.00599596292432 148.74654784162252 C 0.0 **** -0.24
35832 H 19.02240799632507 164.75042290932953 148.40031023316584 H 0.0 **** 0.06
35833 H 19.950089346001647 165.63559035139463 149.63462023337195 H 0.0 **** 0.06
35834 H 20.55259288659923 165.54423821322052 147.96113747180488 H 0.0 **** 0.06
35835 H 20.56706001906859 164.0932012489286 148.99193264872974 H 0.0 **** 0.06
35836 C 9.794067247731903 165.8517307021918 52.33802888896497 C 0.0 **** -0.24
35837 H 10.111815101332411 165.1729341412044 53.12994484642098 H 0.0 **** 0.06
35838 H 8.959297385034418 166.45691423494515 52.691865742323074 H 0.0 **** 0.06
35839 H 9.48320605087902 165.2738867207214 51.46832951908743 H 0.0 **** 0.06
35840 H 10.624355592843713 166.5023916074146 52.06358217258247 H 0.0 **** 0.06
35841 C 202.01630613334748 192.01706995006873 264.8041198858606 C 0.0 **** -0.24
35842 H 201.26951509653514 192.16125251576221 265.5845773688555 H 0.0 **** 0.06
35843 H 202.59560359474023 192.93260762112726 264.6813698249244 H 0.0 **** 0.06
35844 H 201.5184411940083 191.77284867600895 263.8656121222534 H 0.0 **** 0.06
35845 H 202.68106496938077 191.20041418767408 265.0843704921269 H 0.0 **** 0.06
35846 C 43.261582267989695 145.78285197927198 254.99304810730263 C 0.0 **** -0.24
35847 H 42.55557613905461 144.99159207202274 254.73922443050375 H 0.0 **** 0.06
35848 H 43.520217924564776 145.71349983156074 256.0491788862537 H 0.0 **** 0.06
35849 H 42.80719345212381 146.7533314869404 254.79224551396868 H 0.0 **** 0.06
35850 H 44.16241276339949 145.67187856794476 254.3895651580749 H 0.0 **** 0.06
35851 C 283.4214677996328 218.1274740097863 63.54623242401192 C 0.0 **** -0.24
35852 H 282.75999967309406 218.03345614195786 64.40713422182176 H 0.0 **** 0.06
35853 H 284.43861892862253 217.86516363093205 63.83950908825423 H 0.0 **** 0.06
35854 H 283.4004973529095 219.15481381627023 63.18177184314945 H 0.0 **** 0.06
35855 H 283.08675621017056 217.45402268181624 62.7562964663085 H 0.0 **** 0.06
35856 C 123.36884893518675 287.76748454108866 19.823218309402833 C 0.0 **** -0.24
35857 H 122.79064145065021 287.0648574329573 20.42361784589845 H 0.0 **** 0.06
35858 H 124.2497083325998 287.2641169687206 19.422883242760307 H 0.0 **** 0.06
35859 H 123.68110400929649 288.6061186669826 20.444748612005142 H 0.0 **** 0.06
35860 H 122.7542797355998 288.1331366502137 19.000220990610188 H 0.0 **** 0.06
35861 C 299.8398982638581 119.0975065007618 239.03333330916286 C 0.0 **** -0.24
35862 H 300.20839870270186 120.11830823259848 238.9311540473526 H 0.0 **** 0.06
35863 H 298.7525343525788 119.1099131888293 239.1094394810424 H 0.0 **** 0.06
35864 H 300.26184871784324 118.64708011143887 239.93209369702996 H 0.0 **** 0.06
35865 H 300.1373283917893 118.51505002893524 238.1614376006308 H 0.0 **** 0.06
35866 C 313.47757948283345 33.22130533309624 260.86728850749085 C 0.0 **** -0.24
35867 H 312.6448038819419 32.53585810549373 261.0277261936344 H 0.0 **** 0.06
35868 H 313.5835315811456 33.87299581012164 261.73446612721625 H 0.0 **** 0.06
35869 H 313.28389267315487 33.824504178139705 259.97972615606716 H 0.0 **** 0.06
35870 H 314.3954425626248 32.65074901192435 260.72591241127463 H 0.0 **** 0.06
35871 C 200.1964538128936 237.6373614663923 125.31042826757718 C 0.0 **** -0.24
35872 H 199.9629438638916 238.49446839373576 125.94250593002477 H 0.0 **** 0.06
35873 H 200.58775802989925 236.82707249081022 125.9273586895838 H 0.0 **** 0.06
35874 H 200.94456339149082 237.92470663755122 124.57037950628396 H 0.0 **** 0.06
35875 H 199.2926815983759 237.30365433867684 124.8019671768414 H 0.0 **** 0.06
35876 C 6.756910434544551 162.33830113672008 94.23894851879984 C 0.0 **** -0.24
35877 H 6.737785095875083 162.26263464562248 93.15185553638946 H 0.0 **** 0.06
35878 H 7.713731086505746 161.97186773442485 94.61194604590199 H 0.0 **** 0.06
35879 H 5.949067194234416 161.73980080671612 94.65844941048138 H 0.0 **** 0.06
35880 H 6.6271248879289 163.38067226603738 94.53185207873642 H 0.0 **** 0.06
35881 C 18.372219806621445 220.92428469783235 8.409473912806547 C 0.0 **** -0.24
35882 H 18.36094297745838 220.81787576543343 9.493780289239837 H 0.0 **** 0.06
35883 H 17.463034988634362 220.490287944564 7.992718424149956 H 0.0 **** 0.06
35884 H 19.24146989019421 220.4069991443733 8.002595182519443 H 0.0 **** 0.06
35885 H 18.423060010738254 221.98061841283197 8.148940425437686 H 0.0 **** 0.06
35886 C 32.47925864574313 70.75435168589908 257.39489191294444 C 0.0 **** -0.24
35887 H 31.446181626501527 70.43206559791918 257.2633856350057 H 0.0 **** 0.06
35888 H 32.56638701017255 71.3257719043936 258.319499362645 H 0.0 **** 0.06
35889 H 32.77457269911281 71.37953119898393 256.55129690140626 H 0.0 **** 0.06
35890 H 33.128529296919965 69.88105088319705 257.4450484005345 H 0.0 **** 0.06
35891 C 299.21828428860084 58.18585462588874 197.88443670823312 C 0.0 **** -0.24
35892 H 298.5031089127148 58.99054020159366 197.71732401990118 H 0.0 **** 0.06
35893 H 299.03797321990356 57.38507287673667 197.16738938911715 H 0.0 **** 0.06
35894 H 299.10018952668213 57.799667074152296 198.89707492296117 H 0.0 **** 0.06
35895 H 300.23096321572086 58.56715097301682 197.75641783253036 H 0.0 **** 0.06
35896 C 130.18733512441133 56.86327115685111 114.93959299650768 C 0.0 **** -0.24
35897 H 130.186609015341 56.43960382798281 115.94453519535023 H 0.0 **** 0.06
35898 H 129.3891179528722 57.60171370923493 114.85706846054839 H 0.0 **** 0.06
35899 H 130.0261319206022 56.06933241629872 114.21017120184499 H 0.0 **** 0.06
35900 H 131.14715757053472 57.343253974843606 114.7494648426478 H 0.0 **** 0.06
35901 C 304.07140026074387 172.32504638927378 295.67701528563134 C 0.0 **** -0.24
35902 H 304.4572635383244 171.65072976560185 294.912619464699 H 0.0 **** 0.06
35903 H 303.5661573741117 173.1643010670145 295.19908583368556 H 0.0 **** 0.06
35904 H 304.89701348821404 172.69487067130905 296.2852982382067 H 0.0 **** 0.06
35905 H 303.364713824272 171.78758240620306 296.30983445426546 H 0.0 **** 0.06
35906 C 173.27811840193925 250.47142129145826 16.85750458364521 C 0.0 **** -0.24
35907 H 172.92608744230563 249.73109625846826 16.139016309896533 H 0.0 **** 0.06
35908 H 173.16061867241132 251.4705324163702 16.436837105014092 H 0.0 **** 0.06
35909 H 174.33050354005547 250.29218035876747 17.078684512962354 H 0.0 **** 0.06
35910 H 172.6956095933466 250.392645348926 17.774942965629066 H 0.0 **** 0.06
35911 C 182.12729309194225 242.29045426418276 270.3749005900981 C 0.0 **** -0.24
35912 H 181.1484192223498 242.25053452318636 269.8959447293656 H 0.0 **** 0.06
35913 H 182.0171849120445 242.65288543291757 271.39639272481793 H 0.0 **** 0.06
35914 H 182.77680695976773 242.96528809750862 269.8168563396539 H 0.0 **** 0.06
35915 H 182.56542883241616 241.29300972833676 270.3875424210561 H 0.0 **** 0.06
35916 C 197.50847594941132 177.02877088303137 239.52335921992255 C 0.0 **** -0.24
35917 H 196.69426369378942 176.96745309079796 238.8024869196927 H 0.0 **** 0.06
35918 H 198.0145706942456 176.06506876745624 239.58324822684378 H 0.0 **** 0.06
35919 H 197.1081369032421 177.29110683784756 240.5023438174328 H 0.0 **** 0.06
35920 H 198.21839480953338 177.7930722896133 239.20585343146539 H 0.0 **** 0.06
35921 C 131.49466312895333 57.71626550707731 187.8491391531482 C 0.0 **** -0.24
35922 H 132.16425828420086 57.12448512376815 187.22496717671413 H 0.0 **** 0.06
35923 H 131.93346520058014 58.69833761349099 188.02350218417126 H 0.0 **** 0.06
35924 H 131.3459064906483 57.209630759255276 188.80323927858433 H 0.0 **** 0.06
35925 H 130.53481843881198 57.830759576652866 187.34608883167476 H 0.0 **** 0.06
35926 C 114.74531155875545 174.48807119189547 40.57110399339902 C 0.0 **** -0.24
35927 H 113.76535245982507 174.52313225673413 40.09639647221749 H 0.0 **** 0.06
35928 H 114.63645603427787 174.66443320867046 41.64170675280991 H 0.0 **** 0.06
35929 H 115.38583220214775 175.25753309068097 40.13929264016099 H 0.0 **** 0.06
35930 H 115.19312665280054 173.50874050381776 40.40761580725419 H 0.0 **** 0.06
35931 C 248.73379102003207 297.98485071267305 304.2853405056848 C 0.0 **** -0.24
35932 H 249.3321422085957 297.5940294039028 305.1083161489943 H 0.0 **** 0.06
35933 H 248.72937387855114 299.07394832779585 304.32377514384774 H 0.0 **** 0.06
35934 H 247.7118661035513 297.6136398992288 304.371487783731 H 0.0 **** 0.06
35935 H 249.15987801961455 297.6554767455266 303.33756784864585 H 0.0 **** 0.06
35936 C 47.48412043585665 105.83213428419182 275.05809655225954 C 0.0 **** -0.24
35937 H 46.708521618406735 105.0674162700765 275.0141854605217 H 0.0 **** 0.06
35938 H 48.43310604720111 105.37208667800707 275.3327961291284 H 0.0 **** 0.06
35939 H 47.21329091880949 106.58086799212245 275.80220646027715 H 0.0 **** 0.06
35940 H 47.579745484024954 106.30805866849474 274.0819002693311 H 0.0 **** 0.06
35941 C 244.31826610958362 280.0232274193974 184.77573039920986 C 0.0 **** -0.24
35942 H 243.72601506666985 280.4108658838815 183.94808889253966 H 0.0 **** 0.06
35943 H 245.37828767832104 280.1218704130842 184.54116231766062 H 0.0 **** 0.06
35944 H 244.0772165040585 278.9722213977973 184.93371703873385 H 0.0 **** 0.06
35945 H 244.09185525848562 280.5889019902902 185.6799166407792 H 0.0 **** 0.06
35946 C 89.36458655749158 176.33814905013412 61.16424303942881 C 0.0 **** -0.24
35947 H 89.1658800945232 175.9094205666189 62.14652302966897 H 0.0 **** 0.06
35948 H 89.62571396231519 175.54152301130063 60.46765005757118 H 0.0 **** 0.06
35949 H 90.19241979511654 177.0433136254988 61.238117269811596 H 0.0 **** 0.06
35950 H 88.47521999099666 176.8562371163975 60.80839587203866 H 0.0 **** 0.06
35951 C 132.1605627021228 177.8335624983627 281.97042598569794 C 0.0 **** -0.24
35952 H 132.03947130992765 178.91601324959993 282.0069169980984 H 0.0 **** 0.06
35953 H 132.17161043656498 177.504688260489 280.93025674814146 H 0.0 **** 0.06
35954 H 131.33148829089498 177.35720381652152 282.4934932622768 H 0.0 **** 0.06
35955 H 133.10005518676525 177.5565620762016 282.4482418346159 H 0.0 **** 0.06
35956 C 52.868835581489776 49.792565589642805 32.26203727505836 C 0.0 **** -0.24
35957 H 52.3665054306166 48.843505024102484 32.078285250280175 H 0.0 **** 0.06
35958 H 52.19083382073225 50.466848337133484 32.786387104960454 H 0.0 **** 0.06
35959 H 53.16188622730553 50.23914186804217 31.311352100543587 H 0.0 **** 0.06
35960 H 53.7559421202329 49.621961214126486 32.871387324392146 H 0.0 **** 0.06
35961 C 78.97570657819503 0.6453638489532949 107.17437825831578 C 0.0 **** -0.24
35962 H 78.78335687380877 -0.3854627805312987 107.47241248884598 H 0.0 **** 0.06
35963 H 78.70297901675232 0.7770196632731938 106.12701357667154 H 0.0 **** 0.06
35964 H 80.03289183688813 0.8700126857095256 107.30720358833997 H 0.0 **** 0.06
35965 H 78.38011756912181 1.3187547317732395 107.79166004662017 H 0.0 **** 0.06
35966 C 228.81299863352956 246.34620314049332 80.0307346606512 C 0.0 **** -0.24
35967 H 229.17468309821416 246.197357271565 81.04846183829662 H 0.0 **** 0.06
35968 H 229.2504222449553 245.59138946648017 79.37727368125388 H 0.0 **** 0.06
35969 H 229.10111540552884 247.3382382718586 79.68496831258778 H 0.0 **** 0.06
35970 H 227.72675018157543 246.25563610229995 80.01429496664619 H 0.0 **** 0.06
35971 C 213.06889474891358 71.58424227601208 232.04764789426088 C 0.0 **** -0.24
35972 H 212.19303545887536 70.96724962054083 232.24719967942886 H 0.0 **** 0.06
35973 H 213.7740188052612 71.49344969721466 232.87396630951008 H 0.0 **** 0.06
35974 H 212.76394591111173 72.62545199621911 231.94250572812962 H 0.0 **** 0.06
35975 H 213.5444455168586 71.25093576774498 231.12551689153653 H 0.0 **** 0.06
35976 C 123.9017925920102 87.39992569653984 133.51961350641184 C 0.0 **** -0.24
35977 H 124.82125044729963 87.92574374275975 133.26363698122788 H 0.0 **** 0.06
35978 H 124.14429901203766 86.40843868107692 133.9032832715217 H 0.0 **** 0.06
35979 H 123.27889705815 87.30327720051511 132.62968060021126 H 0.0 **** 0.06
35980 H 123.36216431874783 87.96297668764447 134.28146733786667 H 0.0 **** 0.06
35981 C 21.03966009710382 33.649842923890475 123.0692551057169 C 0.0 **** -0.24
35982 H 21.377255544536524 34.49449008245185 123.66868886779972 H 0.0 **** 0.06
35983 H 20.44589340147411 32.97807224645132 123.68965950680521 H 0.0 **** 0.06
35984 H 21.90407669516054 33.11410985835451 122.67764640420569 H 0.0 **** 0.06
35985 H 20.43141474724399 34.01269950830422 122.241025644057 H 0.0 **** 0.06
35986 C 287.30079936248313 223.63126790062864 224.57597381395686 C 0.0 **** -0.24
35987 H 287.4813271178162 224.43214844758404 223.86024591821968 H 0.0 **** 0.06
35988 H 288.05255480295256 223.6729645218362 225.36466672193075 H 0.0 **** 0.06
35989 H 287.36013435077246 222.6690325608975 224.06783912915498 H 0.0 **** 0.06
35990 H 286.3094267379687 223.75121647198867 225.01250560893237 H 0.0 **** 0.06
35991 C 117.83303326201667 95.55372554245062 299.9989590096531 C 0.0 **** -0.24
35992 H 117.01361873171152 96.11316709630566 299.54978274513746 H 0.0 **** 0.06
35993 H 118.21774351251014 96.10018020945589 300.8600465022706 H 0.0 **** 0.06
35994 H 118.6292898194809 95.4233371167202 299.2663488121707 H 0.0 **** 0.06
35995 H 117.47137864240761 94.57660604400732 300.3202840397837 H 0.0 **** 0.06
35996 C 47.94197901886736 304.75583408643445 16.53873973501571 C 0.0 **** -0.24
35997 H 48.98561367044982 304.72308503889644 16.851707088355994 H 0.0 **** 0.06
35998 H 47.313674892854635 305.0009524303114 17.395703140169687 H 0.0 **** 0.06
35999 H 47.65231211182541 303.7841816699512 16.140352977886067 H 0.0 **** 0.06
36000 H 47.81914275250881 305.51606330933544 15.767528915000298 H 0.0 **** 0.06
36001 C 166.8637137629919 196.8375022325152 237.14570818047468 C 0.0 **** -0.24
36002 H 166.3680682369466 197.21994168778832 236.25224641020083 H 0.0 **** 0.06
36003 H 166.83253409280803 195.74810092999644 237.139709944711 H 0.0 **** 0.06
36004 H 166.35280700828503 197.21172404344878 238.03179602356838 H 0.0 **** 0.06
36005 H 167.90104372580436 197.17218491524835 237.15494940829515 H 0.0 **** 0.06
36006 C 193.5609771366104 205.80442128379144 112.43401182931404 C 0.0 **** -0.24
36007 H 192.50265521636987 205.7484953607538 112.18056883557088 H 0.0 **** 0.06
36008 H 194.02543395988567 204.83228405671736 112.26937762883182 H 0.0 **** 0.06
36009 H 193.66848806197356 206.08566071699386 113.48205435532887 H 0.0 **** 0.06
36010 H 194.04601733650048 206.5508977128938 111.80582213601073 H 0.0 **** 0.06
36011 C 259.5624790043736 44.64134151842177 296.00753174556917 C 0.0 **** -0.24
36012 H 259.2046771696541 44.25960827436904 296.9644063105053 H 0.0 **** 0.06
36013 H 259.198186855989 45.65818407198935 295.86435773378275 H 0.0 **** 0.06
36014 H 259.1945643393095 44.00563972856537 295.203004320666 H 0.0 **** 0.06
36015 H 260.6526980343714 44.64182905425059 296.00209288956455 H 0.0 **** 0.06
36016 C 284.2771666499614 244.84612748335877 145.06044894588902 C 0.0 **** -0.24
36017 H 285.1212682253715 245.06070686387793 144.40574094555726 H 0.0 **** 0.06
36018 H 283.8667180628189 243.86677415973736 144.81285375535273 H 0.0 **** 0.06
36019 H 283.509202263332 245.6074433085785 144.92397819958038 H 0.0 **** 0.06
36020 H 284.6122565302272 244.8487162846749 146.09759860702874 H 0.0 **** 0.06
36021 C 138.33802849597004 209.25802550383457 41.219416949979035 C 0.0 **** -0.24
36022 H 138.87280544553087 208.49096195797665 40.65995606888498 H 0.0 **** 0.06
36023 H 137.5735695523484 208.7895477931193 41.839862363579954 H 0.0 **** 0.06
36024 H 137.86764963481588 209.9530686695753 40.52388616368239 H 0.0 **** 0.06
36025 H 139.03973655222208 209.79965265985584 41.85385384859208 H 0.0 **** 0.06
36026 C 116.14357019841 138.08837081944594 255.90191085103393 C 0.0 **** -0.24
36027 H 117.14291110175995 137.6775557653972 255.76032660941337 H 0.0 **** 0.06
36028 H 115.77032147061226 138.47111266039943 254.9519248400217 H 0.0 **** 0.06
36029 H 116.18326112328438 138.8981357369582 256.63017643227624 H 0.0 **** 0.06
36030 H 115.47741091132164 137.30535529190234 256.2648899691559 H 0.0 **** 0.06
36031 C 124.66535662370705 275.1007761559046 139.08386410984838 C 0.0 **** -0.24
36032 H 124.24550412268692 275.597931800794 139.95869580514216 H 0.0 **** 0.06
36033 H 125.65330892613102 275.5105106078011 138.8737158836625 H 0.0 **** 0.06
36034 H 124.01366638956117 275.2651701272446 138.22550706720932 H 0.0 **** 0.06
36035 H 124.74785513511182 274.0320841549543 139.2785812043791 H 0.0 **** 0.06
36036 C 185.82172091417033 256.1347756150364 171.85470207756578 C 0.0 **** -0.24
36037 H 185.27161055781357 255.5204159177088 172.56721671350067 H 0.0 **** 0.06
36038 H 185.20734261636312 256.3053436517573 170.9702128433438 H 0.0 **** 0.06
36039 H 186.7403993915056 255.62267894591025 171.56699178805496 H 0.0 **** 0.06
36040 H 186.06841803142186 257.09196415647136 172.3159753005708 H 0.0 **** 0.06
36041 C 103.43355067879108 174.53181392488796 147.42161873839973 C 0.0 **** -0.24
36042 H 102.7572323313631 174.3708493663013 146.58175490634932 H 0.0 **** 0.06
36043 H 104.46069009364172 174.37112509192752 147.09553582386988 H 0.0 **** 0.06
36044 H 103.1919590788936 173.83176283640404 148.22131388133099 H 0.0 **** 0.06
36045 H 103.32239201911796 175.55275421380907 147.7859482947998 H 0.0 **** 0.06
36046 C 191.1344259671307 98.73048926084056 239.1285981885073 C 0.0 **** -0.24
36047 H 191.78409037642444 99.21815411961546 238.40214757866323 H 0.0 **** 0.06
36048 H 191.056461603118 99.35104027609552 240.02137607009666 H 0.0 **** 0.06
36049 H 191.55286076406048 97.75973585580283 239.39539492695116 H 0.0 **** 0.06
36050 H 190.14457030468844 98.59225147637054 238.69395070922576 H 0.0 **** 0.06
36051 C 225.72019958819644 270.99373408433297 214.91484205499376 C 0.0 **** -0.24
36052 H 224.81714321797935 270.5147136095859 214.5375094119023 H 0.0 **** 0.06
36053 H 226.17675787276653 270.36011884095313 215.6759837049231 H 0.0 **** 0.06
36054 H 225.46420821521235 271.9588716539988 215.3517450621193 H 0.0 **** 0.06
36055 H 226.42349996558048 271.14094630134736 214.09525283352656 H 0.0 **** 0.06
36056 C 297.89613172897464 113.10495571559787 27.955469560829243 C 0.0 **** -0.24
36057 H 297.606520021724 113.07593346701711 26.905183353753955 H 0.0 **** 0.06
36058 H 297.0104203876964 113.2616930662769 28.572216006899595 H 0.0 **** 0.06
36059 H 298.5996506725566 113.92241682452936 28.115712453824187 H 0.0 **** 0.06
36060 H 298.3670103846743 112.16152733616622 28.22846869337343 H 0.0 **** 0.06
36061 C 107.30677425578929 238.3159985339044 89.47815976294169 C 0.0 **** -0.24
36062 H 108.39391264511869 238.25572189982051 89.49510642514377 H 0.0 **** 0.06
36063 H 106.99605827501983 239.07920828472723 88.76469791722062 H 0.0 **** 0.06
36064 H 106.94206530387646 238.57700268358818 90.471734402912 H 0.0 **** 0.06
36065 H 106.89369062857179 237.35119023517467 89.18263782326869 H 0.0 **** 0.06
36066 C 122.34400021550445 310.2045850976167 86.77089442797995 C 0.0 **** -0.24
36067 H 121.86787674343782 309.24172382692035 86.95543700179644 H 0.0 **** 0.06
36068 H 123.10801550244963 310.38275975929764 87.5281089184042 H 0.0 **** 0.06
36069 H 121.59525203798518 310.9951940809599 86.816533781174 H 0.0 **** 0.06
36070 H 122.805467403313 310.19780307498206 85.78255572268634 H 0.0 **** 0.06
36071 C 35.688307417826906 78.00030559466225 71.99586908635592 C 0.0 **** -0.24
36072 H 34.7404591973789 77.95951041426548 71.45961275570804 H 0.0 **** 0.06
36073 H 36.491276667418276 77.66338670058187 71.34113831133624 H 0.0 **** 0.06
36074 H 35.63730086691601 77.35308034548703 72.87250194395548 H 0.0 **** 0.06
36075 H 35.88249885507679 79.02532367450229 72.3116806942368 H 0.0 **** 0.06
36076 C 305.10737117527714 120.11873182922488 291.0397763095729 C 0.0 **** -0.24
36077 H 305.4086715068487 120.25906687498747 292.0775771249428 H 0.0 **** 0.06
36078 H 304.23372793026783 120.73581617416068 290.8287769168849 H 0.0 **** 0.06
36079 H 304.86213104109623 119.07024301109763 290.87193762894833 H 0.0 **** 0.06
36080 H 305.92650685705746 120.41069667701353 290.3821505686576 H 0.0 **** 0.06
36081 C 305.47636846815715 9.854717142951543 187.73574002468274 C 0.0 **** -0.24
36082 H 304.91677067081 9.701611114531744 186.81327691071772 H 0.0 **** 0.06
36083 H 306.52961611826066 9.631042137612653 187.5625631350499 H 0.0 **** 0.06
36084 H 305.08767722376786 9.193483629679307 188.51073403182863 H 0.0 **** 0.06
36085 H 305.3725954259669 10.891183627690026 188.0559411009279 H 0.0 **** 0.06
36086 C 106.3816941458262 273.2783839409838 250.91934469676238 C 0.0 **** -0.24
36087 H 106.70005733802591 274.25506465037057 251.2846473417364 H 0.0 **** 0.06
36088 H 105.33318251799304 273.12108298240196 251.1737462061762 H 0.0 **** 0.06
36089 H 106.98919981587562 272.5011106398776 251.38417738872565 H 0.0 **** 0.06
36090 H 106.50424183718891 273.2371363504171 249.8381624555921 H 0.0 **** 0.06
36091 C 85.13532358200183 311.2515924889232 204.02996628510857 C 0.0 **** -0.24
36092 H 85.54063740721017 311.68114467847425 204.94544428268597 H 0.0 **** 0.06
36093 H 85.09750363734872 310.1660772262529 204.12363387951052 H 0.0 **** 0.06
36094 H 85.77347380340655 311.52166296232383 203.18845479664373 H 0.0 **** 0.06
36095 H 84.12953181057782 311.6376764220237 203.86136182610812 H 0.0 **** 0.06
36096 C 310.6207502589293 98.39496194627444 29.00443540977841 C 0.0 **** -0.24
36097 H 310.23249915161585 99.05467981580043 29.78062853121787 H 0.0 **** 0.06
36098 H 309.85950725063515 97.66250340664035 28.735982583828218 H 0.0 **** 0.06
36099 H 311.5066647880262 97.88000416330169 29.375833145637785 H 0.0 **** 0.06
36100 H 310.8847525653972 98.98474949613902 28.12650444490839 H 0.0 **** 0.06
36101 C 164.80845287036078 181.26177903368114 93.88649579384912 C 0.0 **** -0.24
36102 H 165.6716836427508 181.40301636473714 93.23623507752873 H 0.0 **** 0.06
36103 H 164.3675643732355 182.23106167137325 94.11869366202149 H 0.0 **** 0.06
36104 H 165.12513251507113 180.77575193169832 94.80976120120505 H 0.0 **** 0.06
36105 H 164.07183837819906 180.63773208008337 93.38136726022938 H 0.0 **** 0.06
36106 C 213.83713972636562 185.07887932543406 229.81689776977456 C 0.0 **** -0.24
36107 H 214.64305981674434 185.46874676364968 230.43860794191784 H 0.0 **** 0.06
36108 H 214.14369283660815 185.1012100931236 228.77102116214476 H 0.0 **** 0.06
36109 H 212.94657121626574 185.69331508562425 229.94782818616412 H 0.0 **** 0.06
36110 H 213.61690999936735 184.0520700069775 230.1086628125765 H 0.0 **** 0.06
36111 C 24.663691763197278 97.19601164272507 148.26500218119094 C 0.0 **** -0.24
36112 H 23.91042873147842 96.79045905295308 147.58951032172217 H 0.0 **** 0.06
36113 H 24.233247754488843 97.31519922063947 149.25932135873455 H 0.0 **** 0.06
36114 H 24.99877307606772 98.16481348994424 147.8943704973321 H 0.0 **** 0.06
36115 H 25.512122278419355 96.51254329503257 148.31483223773617 H 0.0 **** 0.06
36116 C 9.909494630521976 291.7411601337136 297.942928218368 C 0.0 **** -0.24
36117 H 8.85183186940273 291.91651031118704 297.74698142061095 H 0.0 **** 0.06
36118 H 10.101936331766254 291.8344574976748 299.0123566401679 H 0.0 **** 0.06
36119 H 10.50604661795498 292.47491173056983 297.40055872086776 H 0.0 **** 0.06
36120 H 10.178155885652387 290.7378446049645 297.6114158769822 H 0.0 **** 0.06
36121 C 12.05080236597695 47.970779050531235 275.46585338375064 C 0.0 **** -0.24
36122 H 11.843049021545951 49.02746856701606 275.29844919589766 H 0.0 **** 0.06
36123 H 11.750727768025726 47.39803379975888 274.5881834773496 H 0.0 **** 0.06
36124 H 11.491352757519863 47.62361515575816 276.33531110085517 H 0.0 **** 0.06
36125 H 13.117197189224854 47.834918441150194 275.64264229839785 H 0.0 **** 0.06
36126 C 304.0354045917437 266.1779986609193 18.28671938679669 C 0.0 **** -0.24
36127 H 302.96619424591097 266.2913164553024 18.11075729178151 H 0.0 **** 0.06
36128 H 304.56965299608936 266.248937907977 17.339592355757702 H 0.0 **** 0.06
36129 H 304.2273739647322 265.2056323144067 18.74096909851646 H 0.0 **** 0.06
36130 H 304.37819044833213 266.9662164623809 18.957782653921697 H 0.0 **** 0.06
36131 C 24.006513332219527 224.68150030560054 230.21372264871115 C 0.0 **** -0.24
36132 H 24.516910589207498 223.74857090658327 230.4489644772391 H 0.0 **** 0.06
36133 H 23.954267108518707 225.30358236916211 231.1078544024983 H 0.0 **** 0.06
36134 H 22.997896541341333 224.46523008600886 229.86167902808234 H 0.0 **** 0.06
36135 H 24.55656479806555 225.21024968945875 229.43492111657235 H 0.0 **** 0.06
36136 C 257.68962499352864 167.5345469275511 87.43868735715901 C 0.0 **** -0.24
36137 H 257.6619854589193 167.01445675152507 88.39643660244468 H 0.0 **** 0.06
36138 H 257.024899793726 168.39823968543607 87.47549202418315 H 0.0 **** 0.06
36139 H 257.3630815317954 166.85736625583974 86.64926538083586 H 0.0 **** 0.06
36140 H 258.70732432494583 167.86687536709246 87.23496149467098 H 0.0 **** 0.06
36141 C 264.9260256371037 19.99523932168995 247.70764648642242 C 0.0 **** -0.24
36142 H 264.6697767321004 20.987030703684752 247.33546547936993 H 0.0 **** 0.06
36143 H 264.01506132788535 19.468591616858134 247.99361952061147 H 0.0 **** 0.06
36144 H 265.5777133390286 20.090989120737333 248.57558799422287 H 0.0 **** 0.06
36145 H 265.4399742756992 19.435431642455967 246.92706817301007 H 0.0 **** 0.06
36146 C 258.3365793451177 256.94937981316593 285.7139518360389 C 0.0 **** -0.24
36147 H 257.43638745877286 256.4316096273386 286.0453412641058 H 0.0 **** 0.06
36148 H 258.24958673583745 257.1835625626004 284.65253906062617 H 0.0 **** 0.06
36149 H 259.2039492783996 256.309381747146 285.8754889027135 H 0.0 **** 0.06
36150 H 258.4549473703534 257.872027163139 286.2814245002104 H 0.0 **** 0.06
36151 C 167.29653662713974 192.684848936692 128.29349792162773 C 0.0 **** -0.24
36152 H 167.22231501726077 191.66172355817952 127.92513809499664 H 0.0 **** 0.06
36153 H 168.26186146720988 192.82502147430705 128.78167204065912 H 0.0 **** 0.06
36154 H 166.49641064703923 192.8721768850843 129.01026567336095 H 0.0 **** 0.06
36155 H 167.20698548678826 193.3797263029952 127.45876180344257 H 0.0 **** 0.06
36156 C 249.0849090135694 312.60337631514017 281.6570158507657 C 0.0 **** -0.24
36157 H 248.73531981811468 313.02231814177014 280.71372454493536 H 0.0 **** 0.06
36158 H 249.8835596838527 313.22789145341835 282.0573223569344 H 0.0 **** 0.06
36159 H 249.46251334077283 311.5942624484087 281.48773344613414 H 0.0 **** 0.06
36160 H 248.25922828242568 312.5681902645594 282.3674612183197 H 0.0 **** 0.06
36161 C 48.914328337716626 133.34909965629302 76.79953413104514 C 0.0 **** -0.24
36162 H 48.98864623533913 133.6773528842091 77.83637260415449 H 0.0 **** 0.06
36163 H 48.52477419724437 132.3312625502081 76.7674475281618 H 0.0 **** 0.06
36164 H 49.901891978855645 133.3751722741516 76.33851935361025 H 0.0 **** 0.06
36165 H 48.24281851683352 134.012540027074 76.25522559590144 H 0.0 **** 0.06
36166 C 191.1151317550556 46.20406606330448 70.20515993728785 C 0.0 **** -0.24
36167 H 191.32109581287438 45.15786043978608 69.97812039887754 H 0.0 **** 0.06
36168 H 190.04473109016288 46.39028456903185 70.11832426437073 H 0.0 **** 0.06
36169 H 191.65395876313715 46.83954521387102 69.50256826842772 H 0.0 **** 0.06
36170 H 191.44295304783742 46.42616714922298 71.22047991425492 H 0.0 **** 0.06
36171 C 272.09679763067413 274.1660463102004 9.433812953920551 C 0.0 **** -0.24
36172 H 273.0656122318731 274.664028197528 9.43813170395633 H 0.0 **** 0.06
36173 H 271.47431139777007 274.59077736287196 8.645066618743044 H 0.0 **** 0.06
36174 H 271.60940329806317 274.30996321049963 10.397969600535504 H 0.0 **** 0.06
36175 H 272.2366071338928 273.1001009531824 9.252095723649916 H 0.0 **** 0.06
36176 C 42.14179272934149 270.52392967312505 120.83693256098582 C 0.0 **** -0.24
36177 H 42.470953979213846 271.5621296380259 120.78908847908411 H 0.0 **** 0.06
36178 H 42.98941936930697 269.88420461587293 121.0808101454445 H 0.0 **** 0.06
36179 H 41.72837062721524 270.2298830059422 119.87213202539877 H 0.0 **** 0.06
36180 H 41.375882040489756 270.42205542155756 121.60669993492556 H 0.0 **** 0.06
36181 C 129.06871010172605 134.819879869818 295.7480387908641 C 0.0 **** -0.24
36182 H 129.3134744917668 135.4307448289896 294.8790613772635 H 0.0 **** 0.06
36183 H 129.67342243127672 135.1383899075159 296.5969025623158 H 0.0 **** 0.06
36184 H 129.2764312788369 133.7733671808041 295.5257091870212 H 0.0 **** 0.06
36185 H 128.01202960824398 134.93732110589013 295.98857411311417 H 0.0 **** 0.06
36186 C 253.30826284751595 220.26401507762205 244.1483024065381 C 0.0 **** -0.24
36187 H 253.2104813105466 221.3420584180812 244.27891894530316 H 0.0 **** 0.06
36188 H 252.31887977652943 219.82102747548234 244.02879726450453 H 0.0 **** 0.06
36189 H 253.79531768112764 219.83457546179432 245.02319700062156 H 0.0 **** 0.06
36190 H 253.9075083333953 220.05930078977855 243.26109653521831 H 0.0 **** 0.06
36191 C 116.57646940643122 205.0653102924561 192.55264580631706 C 0.0 **** -0.24
36192 H 116.13297021684605 204.23856378878702 191.99681395929093 H 0.0 **** 0.06
36193 H 117.0756079645924 204.67894379280045 193.44169416321182 H 0.0 **** 0.06
36194 H 115.79512391745322 205.76496560316508 192.84856136971166 H 0.0 **** 0.06
36195 H 117.30340337754558 205.57746603414023 191.9221730880917 H 0.0 **** 0.06
36196 C 26.495586010924995 114.49944794700775 20.082775630833737 C 0.0 **** -0.24
36197 H 25.8749574196344 114.07693161737231 19.293326805688537 H 0.0 **** 0.06
36198 H 26.986067516760187 113.69351013586706 20.628377578721597 H 0.0 **** 0.06
36199 H 25.87254083327204 115.07571106079698 20.76609903607192 H 0.0 **** 0.06
36200 H 27.24992693774584 115.15115604549092 19.64119022192847 H 0.0 **** 0.06
36201 C 117.70376516046474 135.97852088408655 59.47019621671541 C 0.0 **** -0.24
36202 H 117.72192658246453 136.90897084831363 60.03765667935022 H 0.0 **** 0.06
36203 H 116.67709078845755 135.62354679151088 59.38755559731908 H 0.0 **** 0.06
36204 H 118.30764805529509 135.2301380914818 59.9827915662039 H 0.0 **** 0.06
36205 H 118.11035058620757 136.15354216142845 58.47408718938465 H 0.0 **** 0.06
36206 C 87.29408380995093 30.683844677512724 206.74653972772126 C 0.0 **** -0.24
36207 H 87.45381171050033 31.751808150175663 206.8988432863688 H 0.0 **** 0.06
36208 H 86.25760475686798 30.435964955939426 206.9751183040339 H 0.0 **** 0.06
36209 H 87.95725969428881 30.121231583636728 207.40460553655404 H 0.0 **** 0.06
36210 H 87.50986805529806 30.42910799907429 205.7088746880724 H 0.0 **** 0.06
36211 C 105.26388426129719 173.17329237686715 59.67567017611657 C 0.0 **** -0.24
36212 H 104.64184661822287 172.95473741495118 58.80760436653762 H 0.0 **** 0.06
36213 H 105.48345264756102 174.24088988225606 59.70602876233306 H 0.0 **** 0.06
36214 H 106.19624431470606 172.6122928401811 59.60462367786647 H 0.0 **** 0.06
36215 H 104.7347515237249 172.88494215570415 60.58384859750922 H 0.0 **** 0.06
36216 C 69.96584972094422 198.91665962549814 3.2944584237930883 C 0.0 **** -0.24
36217 H 68.93281816627706 199.23531746830065 3.1609768555055098 H 0.0 **** 0.06
36218 H 69.98663596396841 197.97273485992469 3.840315845434205 H 0.0 **** 0.06
36219 H 70.5096325748645 199.6744526937269 3.858788313920016 H 0.0 **** 0.06
36220 H 70.4351185244135 198.78348508941252 2.3191417122200875 H 0.0 **** 0.06
36221 C 202.08541598082093 249.5723681149671 241.88366289036134 C 0.0 **** -0.24
36222 H 202.17768325683858 248.92429618170328 241.01224400828596 H 0.0 **** 0.06
36223 H 203.0504794143721 249.64280939913345 242.386634012786 H 0.0 **** 0.06
36224 H 201.34828258445714 249.15601350620614 242.5694343834278 H 0.0 **** 0.06
36225 H 201.7676958978858 250.56482675635138 241.56560921663475 H 0.0 **** 0.06
36226 C 161.83705370104792 244.81680224843655 285.8555721870928 C 0.0 **** -0.24
36227 H 160.85021087149534 244.604283887503 286.26703728521977 H 0.0 **** 0.06
36228 H 161.94303597704913 244.31746663779376 284.891643734161 H 0.0 **** 0.06
36229 H 162.6020030581226 244.45137872604488 286.54031993473336 H 0.0 **** 0.06
36230 H 161.9507541488515 245.8922032593556 285.7225187414638 H 0.0 **** 0.06
36231 C 307.9025738631538 0.8075115366942356 98.61708921820491 C 0.0 **** -0.24
36232 H 307.3511284250737 1.4847159856320076 99.26932952143585 H 0.0 **** 0.06
36233 H 307.3379387826325 -0.11649957780103648 98.4936994501212 H 0.0 **** 0.06
36234 H 308.87263903955454 0.5849760538036719 99.06091222317517 H 0.0 **** 0.06
36235 H 308.0474400574432 1.278721708041104 97.64485153591056 H 0.0 **** 0.06
36236 C 154.7733862951692 209.21335138936064 134.0225318286709 C 0.0 **** -0.24
36237 H 154.35499807227228 208.51491556053122 134.74714554445112 H 0.0 **** 0.06
36238 H 153.96667718541602 209.65445547744838 133.43688949185054 H 0.0 **** 0.06
36239 H 155.45603864318798 208.68293940393355 133.35856176317583 H 0.0 **** 0.06
36240 H 155.31443007267927 210.00008168184434 134.54762841453052 H 0.0 **** 0.06
36241 C 309.77419349985007 231.09767038233244 296.29131789525894 C 0.0 **** -0.24
36242 H 309.9212894518353 230.184355220596 295.7147586644393 H 0.0 **** 0.06
36243 H 310.7301053452866 231.4247299554737 296.70238593897153 H 0.0 **** 0.06
36244 H 309.0753431456377 230.90370368241815 297.1048309255196 H 0.0 **** 0.06
36245 H 309.37118132972984 231.8757587300888 295.6429290733169 H 0.0 **** 0.06
36246 C 96.11697636318104 151.64771434067296 168.89696638528216 C 0.0 **** -0.24
36247 H 96.39667293264182 152.68676327714167 168.7230828422629 H 0.0 **** 0.06
36248 H 95.26410626893619 151.60916840749968 169.5750572095248 H 0.0 **** 0.06
36249 H 96.95784830636728 151.11450386154138 169.33961896522032 H 0.0 **** 0.06
36250 H 95.8491857331534 151.1802713297381 167.94912221967024 H 0.0 **** 0.06
36251 C 40.28925126261518 123.09469779646108 145.16206333321895 C 0.0 **** -0.24
36252 H 40.28210451501843 122.15502514337766 145.71549768749608 H 0.0 **** 0.06
36253 H 40.70054213398515 122.92595556955965 144.16690493911634 H 0.0 **** 0.06
36254 H 40.90460821958246 123.82204559985286 145.6914104192373 H 0.0 **** 0.06
36255 H 39.27152883466346 123.47279806102611 145.07545738052502 H 0.0 **** 0.06
36256 C 92.46075672001226 107.52570775633384 147.76636190487793 C 0.0 **** -0.24
36257 H 92.69858861764271 107.60915462907266 148.82679953040287 H 0.0 **** 0.06
36258 H 92.23231947293093 108.51379242564752 147.36647634411145 H 0.0 **** 0.06
36259 H 91.59602122945176 106.87372647567412 147.63867754524645 H 0.0 **** 0.06
36260 H 93.3137713397692 107.10546484630106 147.23382429702085 H 0.0 **** 0.06
36261 C 218.03793773834383 230.72344887789708 55.27897091230818 C 0.0 **** -0.24
36262 H 218.07532021957974 230.7152004084241 54.19051794860158 H 0.0 **** 0.06
36263 H 217.21879370681538 230.090327061601 55.62007378782056 H 0.0 **** 0.06
36264 H 217.87936959396492 231.74334113737257 55.62919694225269 H 0.0 **** 0.06
36265 H 218.9801310940377 230.34521102133922 55.67765896290359 H 0.0 **** 0.06
36266 C 121.11160556630105 75.65686730614081 310.6528648171858 C 0.0 **** -0.24
36267 H 120.55725959090563 76.52610320777652 310.29740899455646 H 0.0 **** 0.06
36268 H 120.50898105617776 75.11332214186123 311.3799911477236 H 0.0 **** 0.06
36269 H 122.03878264858122 75.98532363877646 311.1219974673429 H 0.0 **** 0.06
36270 H 121.3420577876746 75.00379427684402 309.81021438605814 H 0.0 **** 0.06
36271 C 273.0866278871987 296.899799977862 135.01833399502112 C 0.0 **** -0.24
36272 H 272.8808947077222 297.08605165778897 133.96487326265262 H 0.0 **** 0.06
36273 H 272.7242122417883 297.7384843295324 135.61309092842492 H 0.0 **** 0.06
36274 H 274.161282326224 296.78882621906496 135.1641729922805 H 0.0 **** 0.06
36275 H 272.58107677474163 295.9868420704816 135.33091562601948 H 0.0 **** 0.06
36276 C 177.08185594866154 242.6183931740186 64.5675899089585 C 0.0 **** -0.24
36277 H 177.24894215694275 241.9152417789777 65.38503573324891 H 0.0 **** 0.06
36278 H 176.01116605602323 242.7727545817661 64.43539665029414 H 0.0 **** 0.06
36279 H 177.50784181147822 242.2134063195357 63.64948477138623 H 0.0 **** 0.06
36280 H 177.56031265609448 243.56934088876133 64.80274299687477 H 0.0 **** 0.06
36281 C 303.6602486477931 181.5815236576576 260.79431949732106 C 0.0 **** -0.24
36282 H 303.3685909627685 181.68503532654705 261.83990616675095 H 0.0 **** 0.06
36283 H 304.5664276753354 180.97896715753404 260.72955387669543 H 0.0 **** 0.06
36284 H 303.8466315645627 182.5675328409219 260.369369328192 H 0.0 **** 0.06
36285 H 302.8573808401832 181.09321699228974 260.2411583651296 H 0.0 **** 0.06
36286 C 192.15819960441092 3.8312501941812656 290.16836876000133 C 0.0 **** -0.24
36287 H 192.43527856624468 4.866459793542674 289.9674815097231 H 0.0 **** 0.06
36288 H 191.30756088471355 3.5559427665737218 289.54470944609056 H 0.0 **** 0.06
36289 H 191.8890655240117 3.7251474688129207 291.2191115481266 H 0.0 **** 0.06
36290 H 193.0012875784596 3.17931702724799 289.9415711410201 H 0.0 **** 0.06
36291 C 110.22273655931963 304.83612321301865 290.0973104165086 C 0.0 **** -0.24
36292 H 110.47561507553317 305.0565591719948 289.06034041076293 H 0.0 **** 0.06
36293 H 110.22279261305889 305.75940441817824 290.6756746251386 H 0.0 **** 0.06
36294 H 110.95939163063565 304.14632860099834 290.51122835129956 H 0.0 **** 0.06
36295 H 109.23362271761121 304.3788623888733 290.14037666923986 H 0.0 **** 0.06
36296 C 125.38868334917947 3.2416841259151425 117.55127626503511 C 0.0 **** -0.24
36297 H 125.46448577761112 2.6951094817766403 116.6109563711577 H 0.0 **** 0.06
36298 H 126.0400636564006 4.115884192192084 117.51611525134936 H 0.0 **** 0.06
36299 H 125.69165493445064 2.594480602613757 118.37423748350548 H 0.0 **** 0.06
36300 H 124.35771450617148 3.562104053268044 117.70164469648222 H 0.0 **** 0.06
36301 C 93.73010912092712 135.7222220510625 144.1811446100087 C 0.0 **** -0.24
36302 H 94.4374178412441 135.10036299578047 144.72902419098722 H 0.0 **** 0.06
36303 H 94.24925131943215 136.58985807332056 143.77264924240112 H 0.0 **** 0.06
36304 H 92.93992795240595 136.05564016210639 144.8546380686174 H 0.0 **** 0.06
36305 H 93.29195634137 135.14383664053588 143.36737325918014 H 0.0 **** 0.06
36306 C 175.43696447164524 119.50575911220017 23.316854156493093 C 0.0 **** -0.24
36307 H 176.3397229002539 120.11241851547527 23.392662736980952 H 0.0 **** 0.06
36308 H 174.55999949073316 120.1494553975798 23.390188101441908 H 0.0 **** 0.06
36309 H 175.42047977804572 118.77586257990521 24.12630746432555 H 0.0 **** 0.06
36310 H 175.42812633258643 118.98672309738856 22.359126195984373 H 0.0 **** 0.06
36311 C 160.40843214352407 58.443203782754125 163.349191277241 C 0.0 **** -0.24
36312 H 161.16023586300463 59.16684350710608 163.6669192652514 H 0.0 **** 0.06
36313 H 160.55604162228866 58.20577914737913 162.29581464340993 H 0.0 **** 0.06
36314 H 159.41446722852953 58.866941243161506 163.49067859048392 H 0.0 **** 0.06
36315 H 160.50455270126122 57.53548202022833 163.9441025191275 H 0.0 **** 0.06
36316 C 90.15898781099904 225.2734866568971 138.46007291514965 C 0.0 **** -0.24
36317 H 90.82012172125238 224.44609982085672 138.20143740277913 H 0.0 **** 0.06
36318 H 89.20738431989034 224.87958244794538 138.8182511164253 H 0.0 **** 0.06
36319 H 89.98836902732742 225.88997700040997 137.5773361263648 H 0.0 **** 0.06
36320 H 90.61985881369691 225.87641869133714 139.24205835467737 H 0.0 **** 0.06
36321 C 209.10692490798272 59.36855674660748 233.3981891012464 C 0.0 **** -0.24
36322 H 209.21710890690454 58.40329799445047 233.89270338727786 H 0.0 **** 0.06
36323 H 208.1254907263345 59.424133648581574 232.92563380100006 H 0.0 **** 0.06
36324 H 209.88195824334608 59.47893861273269 232.6402191022414 H 0.0 **** 0.06
36325 H 209.20163627062516 60.16623869715633 234.13453997595946 H 0.0 **** 0.06
36326 C 229.82454852705786 279.9504177962144 304.40254309126055 C 0.0 **** -0.24
36327 H 229.12242974438914 280.16925943638114 305.20673019581955 H 0.0 **** 0.06
36328 H 230.305303005675 280.8744280786142 304.08007839108865 H 0.0 **** 0.06
36329 H 229.28824209491327 279.50720350820995 303.5634698788931 H 0.0 **** 0.06
36330 H 230.58075171277397 279.25238679613926 304.76040872321926 H 0.0 **** 0.06
36331 C 211.29721213797325 177.10561718267138 284.7008427865078 C 0.0 **** -0.24
36332 H 211.5741570600875 176.32974124669397 283.98688592965925 H 0.0 **** 0.06
36333 H 210.91754044917144 176.6407485850765 285.61107844209124 H 0.0 **** 0.06
36334 H 210.5251197319275 177.74035160652863 284.26626267121105 H 0.0 **** 0.06
36335 H 212.17285451686013 177.70932193770886 284.93923184392236 H 0.0 **** 0.06
36336 C 188.23642783360754 96.53152486124546 65.31617211061553 C 0.0 **** -0.24
36337 H 187.89308495325696 96.16692011980169 64.34768442248333 H 0.0 **** 0.06
36338 H 188.41167517606306 95.68602900289278 65.98124990419728 H 0.0 **** 0.06
36339 H 187.47596071933253 97.18261167421664 65.74912486449495 H 0.0 **** 0.06
36340 H 189.16227173289343 97.0917554655559 65.18627179011585 H 0.0 **** 0.06
36341 C 154.30941238210198 188.7288535885845 77.5770330097821 C 0.0 **** -0.24
36342 H 154.63646930622167 189.28513253581673 76.69899949799071 H 0.0 **** 0.06
36343 H 153.90579533692562 187.76453346424103 77.26610643510108 H 0.0 **** 0.06
36344 H 153.53876240478706 189.29481915240484 78.0997489364947 H 0.0 **** 0.06
36345 H 155.15854611693499 188.56979838235645 78.24313262717828 H 0.0 **** 0.06
36346 C 231.2192526342239 271.4249613041105 187.26859222068975 C 0.0 **** -0.24
36347 H 230.31539536483865 271.7210646147654 187.80088557528848 H 0.0 **** 0.06
36348 H 231.30357186182007 270.33848498395 187.27188175683585 H 0.0 **** 0.06
36349 H 232.0887899766693 271.85908073328665 187.76166369554778 H 0.0 **** 0.06
36350 H 231.16898361531082 271.78258963026326 186.23974463244394 H 0.0 **** 0.06
36351 C 145.61389761281345 86.57891191907211 69.7128263916652 C 0.0 **** -0.24
36352 H 146.1793102375369 86.18854899448803 68.86749823388632 H 0.0 **** 0.06
36353 H 144.61328945190422 86.85835373164375 69.38304626573955 H 0.0 **** 0.06
36354 H 146.12266578936644 87.45533107961703 70.11613862097997 H 0.0 **** 0.06
36355 H 145.5412635014171 85.8130941520763 70.48563088667345 H 0.0 **** 0.06
36356 C 151.40291540890712 121.47731853530541 59.881596437885634 C 0.0 **** -0.24
36357 H 152.00200399104835 122.37903595824963 60.01007955615586 H 0.0 **** 0.06
36358 H 151.1228095054073 121.37391233876167 58.8332691075818 H 0.0 **** 0.06
36359 H 150.5037342722684 121.54953121203502 60.49369198935162 H 0.0 **** 0.06
36360 H 151.98420322803725 120.60835528623326 60.190887070648785 H 0.0 **** 0.06
36361 C 221.6663618051553 84.08070592460984 181.21236181317516 C 0.0 **** -0.24
36362 H 221.5734735775145 84.03130273576659 182.29729566012384 H 0.0 **** 0.06
36363 H 222.28382212876494 83.2529801265726 180.86315685472874 H 0.0 **** 0.06
36364 H 222.1317178789949 85.02552417694741 180.9300011423705 H 0.0 **** 0.06
36365 H 220.67748348826814 84.01367980298897 180.75967039537568 H 0.0 **** 0.06
36366 C 254.00572550679072 86.53661917736736 56.672969962070965 C 0.0 **** -0.24
36367 H 254.39586558031507 86.06543070106227 55.771525850083776 H 0.0 **** 0.06
36368 H 254.777861487542 87.16658117804698 57.116946610264904 H 0.0 **** 0.06
36369 H 253.70951270009567 85.76796811882056 57.386295182514004 H 0.0 **** 0.06
36370 H 253.1402653778667 87.14839340558646 56.41730922722343 H 0.0 **** 0.06
36371 C 85.58098677990316 296.5670448879173 189.0101127095225 C 0.0 **** -0.24
36372 H 86.48395990963067 296.7749007572128 189.58357134922983 H 0.0 **** 0.06
36373 H 85.85254202108953 296.1173532154244 188.0541574237851 H 0.0 **** 0.06
36374 H 85.04158174831272 297.49842022666826 188.83401743369484 H 0.0 **** 0.06
36375 H 84.94576153725214 295.8799488585622 189.56856708070887 H 0.0 **** 0.06
36376 C 196.57129533273286 277.1617160859962 169.93970632053686 C 0.0 **** -0.24
36377 H 196.14063695687662 276.2599194612393 170.37408007387575 H 0.0 **** 0.06
36378 H 195.7734644854163 277.79404876401065 169.5496669953925 H 0.0 **** 0.06
36379 H 197.24647077771198 276.8871970499481 169.1295280900996 H 0.0 **** 0.06
36380 H 197.12460911092637 277.705699068787 170.70555012277964 H 0.0 **** 0.06
36381 C 13.925562571166694 197.2910124074814 171.78012373676864 C 0.0 **** -0.24
36382 H 13.727225897852875 196.81017877002876 172.7375891008124 H 0.0 **** 0.06
36383 H 13.788676599671973 196.567918154025 170.9751167254401 H 0.0 **** 0.06
36384 H 14.95071138305316 197.66266714802413 171.7653920519274 H 0.0 **** 0.06
36385 H 13.235636404088794 198.12328555784768 171.64239706889492 H 0.0 **** 0.06
36386 C 222.29530742205895 55.38756629365207 121.51090130800566 C 0.0 **** -0.24
36387 H 222.59304515143094 54.80682336218206 120.63840188807603 H 0.0 **** 0.06
36388 H 222.93986675479488 55.13310442904529 122.35322890655857 H 0.0 **** 0.06
36389 H 221.2599796054925 55.1591106654283 121.7646958901799 H 0.0 **** 0.06
36390 H 222.38952534321248 56.450757687533695 121.28911448517539 H 0.0 **** 0.06
36391 C 132.86256555557316 242.75539331979326 183.61991838084975 C 0.0 **** -0.24
36392 H 131.77282323804906 242.73455476608802 183.6185821768811 H 0.0 **** 0.06
36393 H 133.21663965362907 243.23749388956952 182.70761035577146 H 0.0 **** 0.06
36394 H 133.2451125138183 241.73611623506014 183.66439753733363 H 0.0 **** 0.06
36395 H 133.21375555057165 243.31466289822703 184.48716083630876 H 0.0 **** 0.06
36396 C 152.12622530888757 122.55540401837052 305.00755385656413 C 0.0 **** -0.24
36397 H 152.84012820736814 123.05714721879076 305.66222230000227 H 0.0 **** 0.06
36398 H 152.6636438412017 121.91745197644204 304.30621666138416 H 0.0 **** 0.06
36399 H 151.55355154231898 123.3013774593118 304.4558449336331 H 0.0 **** 0.06
36400 H 151.44907745942515 121.94719712428798 305.6065008573558 H 0.0 **** 0.06
36401 C 143.44594703094438 31.751564119876463 191.0668353587143 C 0.0 **** -0.24
36402 H 142.91124068166016 32.11279591464009 191.9448171675212 H 0.0 **** 0.06
36403 H 143.05390501768173 32.24297380978058 190.17495703864137 H 0.0 **** 0.06
36404 H 143.31113088304744 30.673479001284818 190.97660545541817 H 0.0 **** 0.06
36405 H 144.50701081961782 31.977805013874985 191.16893355322026 H 0.0 **** 0.06
36406 C 25.34879287495494 204.9288709255818 128.88219982337398 C 0.0 **** -0.24
36407 H 26.238520739791085 204.5431941716799 129.37998302738026 H 0.0 **** 0.06
36408 H 24.461230348849142 204.60870085344482 129.42725875026412 H 0.0 **** 0.06
36409 H 25.309370412397072 204.54609997226987 127.86241375935481 H 0.0 **** 0.06
36410 H 25.388960183604013 206.01784078832293 128.8597816452937 H 0.0 **** 0.06
36411 C 111.11149447124461 275.6863337467739 312.7986882826044 C 0.0 **** -0.24
36412 H 112.12133984564747 275.91258826071186 312.4557982613335 H 0.0 **** 0.06
36413 H 110.95877242464115 276.12141546137366 313.7864636766211 H 0.0 **** 0.06
36414 H 110.98048483527259 274.60639112731303 312.8518931286806 H 0.0 **** 0.06
36415 H 110.38818607225215 276.1066719011519 312.1002356041576 H 0.0 **** 0.06
36416 C 207.30668298154126 163.41204270527902 254.77753993456577 C 0.0 **** -0.24
36417 H 206.9868709587638 162.44608449110564 255.16612627069657 H 0.0 **** 0.06
36418 H 206.53060567679807 163.8170204733779 254.12829932195658 H 0.0 **** 0.06
36419 H 208.22781233131872 163.28725062595947 254.20822894033577 H 0.0 **** 0.06
36420 H 207.48153029635563 164.0978386794984 255.6060938827048 H 0.0 **** 0.06
36421 C 282.97265941358773 224.3427650202653 38.593950873283006 C 0.0 **** -0.24
36422 H 283.10348570430955 225.37702434407885 38.27696904569217 H 0.0 **** 0.06
36423 H 282.8173732039984 223.7105809930838 37.71836769091317 H 0.0 **** 0.06
36424 H 282.10595991096966 224.27148678060206 39.25148546316828 H 0.0 **** 0.06
36425 H 283.86304945402435 224.01088440925838 39.128497586366365 H 0.0 **** 0.06
36426 C 192.85556711183256 160.36607591017918 307.7824712462209 C 0.0 **** -0.24
36427 H 193.36924254782417 161.32725279035287 307.8231149068758 H 0.0 **** 0.06
36428 H 192.47387393466983 160.2024202394329 306.77465554374135 H 0.0 **** 0.06
36429 H 192.0265585764456 160.36711608120152 308.4903491434205 H 0.0 **** 0.06
36430 H 193.55346705845272 159.57084734136413 308.0407027875474 H 0.0 **** 0.06
36431 C 296.8125491466885 37.91253881573786 256.8200741467574 C 0.0 **** -0.24
36432 H 296.66441995528805 37.88927563388526 255.74036450168634 H 0.0 **** 0.06
36433 H 297.37336439964804 37.029692296090445 257.1283250649293 H 0.0 **** 0.06
36434 H 295.84350137881944 37.920447046075196 257.31920562650924 H 0.0 **** 0.06
36435 H 297.3686652815079 38.80948012553952 257.09180835343994 H 0.0 **** 0.06
36436 C 156.66041954821924 154.30417889340896 164.3606329216923 C 0.0 **** -0.24
36437 H 156.7043375114739 153.3769652834631 164.93242439260956 H 0.0 **** 0.06
36438 H 157.62188929638637 154.8138810011917 164.42333088691385 H 0.0 **** 0.06
36439 H 155.8803773300681 154.94638820170616 164.77014811606995 H 0.0 **** 0.06
36440 H 156.4352017040731 154.0775068186569 163.31807258897868 H 0.0 **** 0.06
36441 C 53.33610295049186 50.96500709469578 220.08704523111584 C 0.0 **** -0.24
36442 H 54.321325882233594 51.40390057864323 220.2473906037097 H 0.0 **** 0.06
36443 H 53.44371085754088 49.90399915341672 219.86276630958127 H 0.0 **** 0.06
36444 H 52.847303689881926 51.46637932197794 219.25239349700468 H 0.0 **** 0.06
36445 H 52.73397679599546 51.0877117357131 220.98721744479195 H 0.0 **** 0.06
36446 C 157.2883830210733 255.95581415088756 177.86736178415475 C 0.0 **** -0.24
36447 H 157.90746498177805 256.6708408582125 178.4099368364145 H 0.0 **** 0.06
36448 H 157.91614194926518 255.36427275301762 177.2009468588546 H 0.0 **** 0.06
36449 H 156.54032206087385 256.49258196985835 177.2836525587992 H 0.0 **** 0.06
36450 H 156.79026935100848 255.29573042129917 178.57783106131143 H 0.0 **** 0.06
36451 C 210.45248182540124 295.6452084112321 222.96743910923786 C 0.0 **** -0.24
36452 H 211.4276302278138 295.1950336924229 223.15253007209984 H 0.0 **** 0.06
36453 H 209.87824840886583 295.65950903044586 223.89446328964445 H 0.0 **** 0.06
36454 H 209.91859913727984 295.06099789576064 222.21821971753988 H 0.0 **** 0.06
36455 H 210.5863491177061 296.6652123029544 222.60682025214925 H 0.0 **** 0.06
36456 C 285.54603904899795 248.12845894427247 201.85920799168292 C 0.0 **** -0.24
36457 H 284.6437577434467 247.87071463512783 202.4146201547277 H 0.0 **** 0.06
36458 H 285.5149608323147 247.65525775936254 200.87770448502442 H 0.0 **** 0.06
36459 H 286.4210565189284 247.77618155156566 202.4061453001708 H 0.0 **** 0.06
36460 H 285.6017722810454 249.20968458934686 201.74015231883925 H 0.0 **** 0.06
36461 C 207.9671781723863 273.7590270333762 23.543205886248472 C 0.0 **** -0.24
36462 H 208.93700435560487 273.3267002307164 23.29543570362921 H 0.0 **** 0.06
36463 H 207.34754341063575 273.0050105802847 24.02847931420439 H 0.0 **** 0.06
36464 H 207.47850300724025 274.1012061527229 22.63100010750418 H 0.0 **** 0.06
36465 H 208.10879998736533 274.6034408865926 24.21820874456978 H 0.0 **** 0.06
36466 C 303.7354067654966 147.69730009673353 149.76330008399503 C 0.0 **** -0.24
36467 H 304.1635982164702 147.30136945642613 148.84252358636854 H 0.0 **** 0.06
36468 H 302.85552325833186 148.29707506719268 149.52657586269282 H 0.0 **** 0.06
36469 H 304.4738514441918 148.3195492491311 150.2687234689805 H 0.0 **** 0.06
36470 H 303.4483817637708 146.87259092776978 150.4152799784082 H 0.0 **** 0.06
36471 C 256.3606242188839 179.97692662926215 257.73928499759904 C 0.0 **** -0.24
36472 H 255.43817016164527 180.13379727275253 257.18085285295945 H 0.0 **** 0.06
36473 H 257.17497870952604 180.51721209547725 257.2542790816966 H 0.0 **** 0.06
36474 H 256.594764728074 178.91204523445305 257.76303773517475 H 0.0 **** 0.06
36475 H 256.2363560050401 180.3440327856203 258.7573973808353 H 0.0 **** 0.06
36476 C 11.629169780691484 287.6988285427821 311.361814098245 C 0.0 **** -0.24
36477 H 12.219067234819192 286.82818820093644 311.0765357509404 H 0.0 **** 0.06
36478 H 12.129396348873428 288.2268980120163 312.1738826717389 H 0.0 **** 0.06
36479 H 10.641870029868286 287.3762850695219 311.6921915477042 H 0.0 **** 0.06
36480 H 11.526111278270875 288.3649124601413 310.5045752081095 H 0.0 **** 0.06
36481 C 238.1624557410513 28.77812855428772 288.0371373755898 C 0.0 **** -0.24
36482 H 238.63651957070272 29.594383251035083 288.581028081196 H 0.0 **** 0.06
36483 H 238.69111185481802 27.847563676791253 288.2435013057998 H 0.0 **** 0.06
36484 H 238.19568609044003 28.986105499363077 286.96819973516716 H 0.0 **** 0.06
36485 H 237.12376588638108 28.68484571479462 288.3569811743406 H 0.0 **** 0.06
36486 C 103.0060154681396 73.25698857910646 260.0694145255706 C 0.0 **** -0.24
36487 H 103.20383574935875 73.0272600060469 259.02281848828716 H 0.0 **** 0.06
36488 H 101.93339564770307 73.38869932765544 260.21463970688336 H 0.0 **** 0.06
36489 H 103.52501698263401 74.17497283175135 260.3433555507605 H 0.0 **** 0.06
36490 H 103.3595611276229 72.43765743051983 260.6949673078039 H 0.0 **** 0.06
36491 C 195.56478085986828 158.40063002347625 256.5177615757364 C 0.0 **** -0.24
36492 H 196.11433747746878 158.72511504227202 255.63423945053344 H 0.0 **** 0.06
36493 H 196.2312437495611 158.40096624004883 257.3811377743119 H 0.0 **** 0.06
36494 H 195.17852324221553 157.39503882584938 256.3568058738963 H 0.0 **** 0.06
36495 H 194.7348491126021 159.08433081502824 256.6994808032382 H 0.0 **** 0.06
36496 C 259.4263641713092 242.4766000076732 29.05055907147343 C 0.0 **** -0.24
36497 H 258.80395320151916 241.5900860823889 28.925887509966657 H 0.0 **** 0.06
36498 H 259.03244217827597 243.2851875947867 28.43411529357101 H 0.0 **** 0.06
36499 H 260.4470091591823 242.24942192471713 28.74371827483705 H 0.0 **** 0.06
36500 H 259.4198431361125 242.78107912666079 30.096584064869802 H 0.0 **** 0.06
36501 C 304.6247996890509 241.4152918701758 139.2408285230741 C 0.0 **** -0.24
36502 H 304.0594196732554 240.56689347049004 139.62539183331387 H 0.0 **** 0.06
36503 H 305.23133058943256 241.83943042902757 140.04068419580284 H 0.0 **** 0.06
36504 H 303.9352853233215 242.1713717106047 138.86643893925552 H 0.0 **** 0.06
36505 H 305.27382557671825 241.08241077089622 138.43013935573583 H 0.0 **** 0.06
36506 C 10.201598783037483 122.19938390284884 307.03461655483744 C 0.0 **** -0.24
36507 H 9.44232241720806 122.73764635958946 306.4671315077783 H 0.0 **** 0.06
36508 H 9.73056528338455 121.39607018963443 307.60083724406275 H 0.0 **** 0.06
36509 H 10.695602163835915 122.88678255393035 307.72148852638963 H 0.0 **** 0.06
36510 H 10.937383947467936 121.77919085424733 306.34930396822546 H 0.0 **** 0.06
36511 C 104.13053191871899 37.529383227603034 176.01716449545285 C 0.0 **** -0.24
36512 H 104.03948079743068 36.89825874818342 175.1327212027034 H 0.0 **** 0.06
36513 H 103.1668020964886 37.98742773000379 176.23716996916136 H 0.0 **** 0.06
36514 H 104.86946802265106 38.30916136749562 175.83197314029286 H 0.0 **** 0.06
36515 H 104.44770679895757 36.923057658125515 176.86503520767252 H 0.0 **** 0.06
36516 C 8.31210444027451 179.89752083826602 230.24080567683313 C 0.0 **** -0.24
36517 H 8.625862185410043 180.04775821653658 231.27432788866338 H 0.0 **** 0.06
36518 H 9.05838771309324 180.3217449573931 229.56959295318944 H 0.0 **** 0.06
36519 H 7.35362039437716 180.38991297701972 230.07833825594332 H 0.0 **** 0.06
36520 H 8.209909439999322 178.83045285277683 230.04405343467448 H 0.0 **** 0.06
36521 C 190.74773771806412 107.95738137384447 189.73934469469566 C 0.0 **** -0.24
36522 H 191.2257657384738 108.93446012137065 189.8041573446073 H 0.0 **** 0.06
36523 H 190.3437296067999 107.81725570806759 188.73614900143633 H 0.0 **** 0.06
36524 H 189.93928234060417 107.89983624448396 190.4673301376505 H 0.0 **** 0.06
36525 H 191.48229108519558 107.17961913191306 189.9479318354846 H 0.0 **** 0.06
36526 C 64.77891130106593 160.8705348313713 94.84780006654722 C 0.0 **** -0.24
36527 H 63.88698199908197 161.33763616445276 95.26461514776153 H 0.0 **** 0.06
36528 H 64.57655411607581 159.8190656661518 94.64600930758556 H 0.0 **** 0.06
36529 H 65.59881608937084 160.9537943364076 95.56045590084409 H 0.0 **** 0.06
36530 H 65.05213682536822 161.37354379868498 93.92034540973552 H 0.0 **** 0.06
36531 C 116.19272308290533 131.58659006877056 112.17443401815359 C 0.0 **** -0.24
36532 H 115.49838932619926 130.8121791141916 111.84771906639483 H 0.0 **** 0.06
36533 H 117.1925336261555 131.35659966060342 111.80431829840916 H 0.0 **** 0.06
36534 H 116.20782040988166 131.62441451219124 113.26325022302137 H 0.0 **** 0.06
36535 H 115.87253647848766 132.55052262417584 111.78108568741584 H 0.0 **** 0.06
36536 C 42.341923864920545 277.19018518313743 256.1308276686741 C 0.0 **** -0.24
36537 H 41.33210978054689 276.8973614306961 256.41842828640154 H 0.0 **** 0.06
36538 H 43.06494588868125 276.5775862208781 256.66879422115016 H 0.0 **** 0.06
36539 H 42.49931537464218 278.2399115418036 256.37829652285893 H 0.0 **** 0.06
36540 H 42.469055312993106 277.046754151243 255.05809122330552 H 0.0 **** 0.06
36541 C 213.21938619194566 52.647978602536085 213.9414778284642 C 0.0 **** -0.24
36542 H 212.4840196966037 52.180745654910424 213.2878396777519 H 0.0 **** 0.06
36543 H 212.75722114731894 53.48155264932069 214.47125904229887 H 0.0 **** 0.06
36544 H 214.05502988811148 53.01427569736802 213.34498775973594 H 0.0 **** 0.06
36545 H 213.58192210542632 51.915875335686366 214.6629623171039 H 0.0 **** 0.06
36546 C 248.4592018099142 89.2185718753615 10.230928239468696 C 0.0 **** -0.24
36547 H 247.87378359284887 89.58362368569937 9.387027156973843 H 0.0 **** 0.06
36548 H 249.25086050212371 89.93322625725025 10.459762212402325 H 0.0 **** 0.06
36549 H 248.90083580986808 88.25535020251453 9.977833862725191 H 0.0 **** 0.06
36550 H 247.81104678256744 89.10428697847553 11.10013038822541 H 0.0 **** 0.06
36551 C 167.36772809135726 193.53849783662093 144.922897739986 C 0.0 **** -0.24
36552 H 166.64624176032606 193.33136274773375 144.13222784597386 H 0.0 **** 0.06
36553 H 167.79765941637856 194.52927978109477 144.77236020667712 H 0.0 **** 0.06
36554 H 168.15981188433994 192.7905404037641 144.89617151713193 H 0.0 **** 0.06
36555 H 166.8668527264291 193.50279711687494 145.88989343461787 H 0.0 **** 0.06
36556 C 170.69189317974173 152.8709738544665 256.56352620893284 C 0.0 **** -0.24
36557 H 171.38062388503698 152.69432818719105 255.73772134634243 H 0.0 **** 0.06
36558 H 171.21289703087092 153.3972453005302 257.36416639534116 H 0.0 **** 0.06
36559 H 170.32053349769984 151.91685923919516 256.93706019122243 H 0.0 **** 0.06
36560 H 169.8548818440408 153.47516914046713 256.21539056793677 H 0.0 **** 0.06
36561 C 109.87163967180277 95.90115467519988 96.68011463268437 C 0.0 **** -0.24
36562 H 109.43841720832671 94.93650664132713 96.41742315220239 H 0.0 **** 0.06
36563 H 109.1623569645676 96.4647766837106 97.28677732791391 H 0.0 **** 0.06
36564 H 110.09450661939258 96.4590207334683 95.77057016709529 H 0.0 **** 0.06
36565 H 110.79050220781647 95.74437709302666 97.24450702857166 H 0.0 **** 0.06
36566 C 220.1078167113318 233.24317076338207 226.43384673889483 C 0.0 **** -0.24
36567 H 220.042325173978 232.7566406257526 227.40680800823554 H 0.0 **** 0.06
36568 H 219.2287228068614 232.98873564202233 225.84113008696232 H 0.0 **** 0.06
36569 H 221.00578628203166 232.90472912567645 225.9180364513598 H 0.0 **** 0.06
36570 H 220.1538346771274 234.32426701126303 226.57108232782377 H 0.0 **** 0.06
36571 C 304.81328657835184 3.281623871866657 41.8050287700288 C 0.0 **** -0.24
36572 H 304.58413669926756 4.188825856723739 42.36565453583967 H 0.0 **** 0.06
36573 H 304.0577516464526 3.1319152042226506 41.03250715857871 H 0.0 **** 0.06
36574 H 304.8161460517874 2.4275485815548734 42.482463322615445 H 0.0 **** 0.06
36575 H 305.7940313984578 3.380967613571528 41.33994300540661 H 0.0 **** 0.06
36576 C 280.17586716837775 12.552811748335003 92.14651142367461 C 0.0 **** -0.24
36577 H 279.6756800373553 12.96282644078299 91.2693847886658 H 0.0 **** 0.06
36578 H 279.8376702487398 13.082055532619137 93.03798504371815 H 0.0 **** 0.06
36579 H 281.253842132252 12.673579459983145 92.03863887065319 H 0.0 **** 0.06
36580 H 279.93568043700895 11.49356415996094 92.23984004684746 H 0.0 **** 0.06
36581 C 208.66704534944023 85.76424061633335 67.36680597866902 C 0.0 **** -0.24
36582 H 208.83467052750748 86.82884183475917 67.530587528996 H 0.0 **** 0.06
36583 H 208.28511716343837 85.6079229375969 66.35865817823176 H 0.0 **** 0.06
36584 H 207.9424255124801 85.39523312237856 68.09204380670425 H 0.0 **** 0.06
36585 H 209.60744861511535 85.22576456468283 67.48740694490053 H 0.0 **** 0.06
36586 C 117.66083569889764 157.91883648858425 56.84754721696905 C 0.0 **** -0.24
36587 H 118.23288252952486 157.14966881068165 56.32896949345417 H 0.0 **** 0.06
36588 H 117.36152690579118 158.68931993872417 56.136969389006964 H 0.0 **** 0.06
36589 H 118.27601553340713 158.36337880624285 57.62942012592157 H 0.0 **** 0.06
36590 H 116.77240524319049 157.47136332904404 57.29376739724458 H 0.0 **** 0.06
36591 C 203.3800122647242 109.06158400844515 284.9135299461166 C 0.0 **** -0.24
36592 H 203.20680887012617 108.05297502981955 285.28878301045404 H 0.0 **** 0.06
36593 H 203.19723489901082 109.08565885739992 283.8386917297305 H 0.0 **** 0.06
36594 H 204.4102806529615 109.35274535707583 285.11442409828885 H 0.0 **** 0.06
36595 H 202.70213894774008 109.75488363746658 285.4125918116008 H 0.0 **** 0.06
36596 C 51.05360154488861 306.89348017537696 157.8696297414619 C 0.0 **** -0.24
36597 H 50.98710202027564 306.6741078702072 156.80344778689636 H 0.0 **** 0.06
36598 H 51.909933136343085 306.36992471684374 158.29526131852413 H 0.0 **** 0.06
36599 H 50.14120805567151 306.5631228119482 158.3662145616264 H 0.0 **** 0.06
36600 H 51.17642395069973 307.9675237441997 158.01206015471735 H 0.0 **** 0.06
36601 C 40.98972915338646 85.7973760267655 179.88886031247614 C 0.0 **** -0.24
36602 H 40.913590293060054 86.59481538727141 180.62869049197417 H 0.0 **** 0.06
36603 H 41.80072419511055 86.02166284168527 179.19612745201323 H 0.0 **** 0.06
36604 H 40.05229779630076 85.72235698097586 179.33848049820767 H 0.0 **** 0.06
36605 H 41.192099413865094 84.85242103829648 180.39308516066876 H 0.0 **** 0.06
36606 C 32.10439909210703 268.8240909945711 30.26198491072455 C 0.0 **** -0.24
36607 H 31.744924841443463 267.79929120433565 30.36018881791722 H 0.0 **** 0.06
36608 H 32.1812316383637 269.08278919539663 29.20646070658742 H 0.0 **** 0.06
36609 H 33.08504433351442 268.91062022703136 30.730235862423655 H 0.0 **** 0.06
36610 H 31.40667409237281 269.50145318270285 30.752797129118136 H 0.0 **** 0.06
36611 C 45.807014187965706 52.09607794890809 253.621377365758 C 0.0 **** -0.24
36612 H 45.34963399540186 52.206344269470634 254.6042324133591 H 0.0 **** 0.06
36613 H 45.54997841978525 52.957488623077296 253.00298054729345 H 0.0 **** 0.06
36614 H 45.437780483517656 51.18695300335074 253.14885895780088 H 0.0 **** 0.06
36615 H 46.88979099990763 52.03639174145536 253.72959603418786 H 0.0 **** 0.06
36616 C 196.88146522435642 11.834567914528137 82.74973499407437 C 0.0 **** -0.24
36617 H 195.9683610750197 11.330877982945836 83.0684097802488 H 0.0 **** 0.06
36618 H 197.60139882852258 11.831592015351106 83.5674923509811 H 0.0 **** 0.06
36619 H 196.64982570980203 12.863442763829312 82.47175291538653 H 0.0 **** 0.06
36620 H 197.30269956509534 11.31190983709061 81.89139735023025 H 0.0 **** 0.06
36621 C 68.81433167931604 105.33519930175763 167.6049300048865 C 0.0 **** -0.24
36622 H 69.89059181294775 105.5007941523692 167.55267273854992 H 0.0 **** 0.06
36623 H 68.34406636136364 105.71368352623102 166.69634837361548 H 0.0 **** 0.06
36624 H 68.40846172310759 105.85967610740013 168.46949463822563 H 0.0 **** 0.06
36625 H 68.61563258862708 104.26814154062728 167.70035406708 H 0.0 **** 0.06
36626 C 138.36737374282598 262.46961176845934 297.17599281800665 C 0.0 **** -0.24
36627 H 137.80396131607722 262.6592313644871 296.26227831289395 H 0.0 **** 0.06
36628 H 139.07688825300295 263.2812086459461 297.3392748476686 H 0.0 **** 0.06
36629 H 138.9066890596086 261.52770249475265 297.0807391842726 H 0.0 **** 0.06
36630 H 137.68072214057997 262.41204654256865 298.0204779695624 H 0.0 **** 0.06
36631 C 234.90079014294045 62.785516629037346 94.39622771079087 C 0.0 **** -0.24
36632 H 234.57320482947054 63.81398509098901 94.24320536996976 H 0.0 **** 0.06
36633 H 234.91634702066744 62.565315296609185 95.46415313497326 H 0.0 **** 0.06
36634 H 235.9011597392572 62.65701139374076 93.98277707816115 H 0.0 **** 0.06
36635 H 234.21106714681684 62.10604304157138 93.89486139211405 H 0.0 **** 0.06
36636 C 245.60897086012938 222.15216492176717 161.62077229124634 C 0.0 **** -0.24
36637 H 245.34209246419425 221.09580237317988 161.6405063993525 H 0.0 **** 0.06
36638 H 246.446606863171 222.3020312023924 160.93851692785728 H 0.0 **** 0.06
36639 H 245.8942648047448 222.47338617196334 162.62229244648506 H 0.0 **** 0.06
36640 H 244.75449981959687 222.73636358824444 161.2802425486135 H 0.0 **** 0.06
36641 C 222.47472204304995 100.18782126158061 116.75118271736187 C 0.0 **** -0.24
36642 H 223.38068973306565 100.09224162173575 116.15218903646428 H 0.0 **** 0.06
36643 H 222.72506123274871 100.08420467495228 117.80741528986164 H 0.0 **** 0.06
36644 H 221.76790135601743 99.4089848509312 116.4665870258965 H 0.0 **** 0.06
36645 H 222.02746063814106 101.16685511278615 116.57832061829222 H 0.0 **** 0.06
36646 C 130.85585100570452 84.47150409086953 107.76075988620528 C 0.0 **** -0.24
36647 H 129.81245048363897 84.42595722810984 107.44781230839547 H 0.0 **** 0.06
36648 H 131.44562555285455 83.78005936347529 107.1579875181709 H 0.0 **** 0.06
36649 H 130.93197809752562 84.19317404352614 108.8113313475769 H 0.0 **** 0.06
36650 H 131.232490322232 85.48504968115915 107.62445687880722 H 0.0 **** 0.06
36651 C 269.59697954597743 311.34767199220016 98.38702987998053 C 0.0 **** -0.24
36652 H 270.28245290407654 311.78351123690163 97.65986773831568 H 0.0 **** 0.06
36653 H 268.97902182746714 310.59551989745506 97.89658331344663 H 0.0 **** 0.06
36654 H 268.960834584547 312.13013260141884 98.79997821824713 H 0.0 **** 0.06
36655 H 270.1683098680579 310.8817196797363 99.18977545284108 H 0.0 **** 0.06
36656 C 305.98099158594636 273.1816826420288 206.2366676436098 C 0.0 **** -0.24
36657 H 305.7042055518175 272.1305598208464 206.15943647740409 H 0.0 **** 0.06
36658 H 306.94527769959404 273.26790520176905 206.7371567140882 H 0.0 **** 0.06
36659 H 305.22312591711164 273.7148175090476 206.81176172028154 H 0.0 **** 0.06
36660 H 306.04894711374163 273.61328187672734 205.23791066707253 H 0.0 **** 0.06
36661 C 17.732226158288228 230.02646277444543 61.91741947088681 C 0.0 **** -0.24
36662 H 18.319517168833627 229.18358015011523 61.55617510708902 H 0.0 **** 0.06
36663 H 16.911382921406727 229.65963324846444 62.5342240042651 H 0.0 **** 0.06
36664 H 17.330494018100808 230.57975123795939 61.06883564390631 H 0.0 **** 0.06
36665 H 18.3668557187397 230.6843828526217 62.51101937073372 H 0.0 **** 0.06
36666 C 32.11657358509834 184.47110907135345 183.65959726439047 C 0.0 **** -0.24
36667 H 32.232586260070576 184.11486469106353 184.6834284774996 H 0.0 **** 0.06
36668 H 32.14864667985347 183.62250359731541 182.97501313977165 H 0.0 **** 0.06
36669 H 32.92498234375549 185.1612205226292 183.4216712129313 H 0.0 **** 0.06
36670 H 31.159627546952038 184.98293289440295 183.55882522906154 H 0.0 **** 0.06
36671 C 273.03858373516687 230.1530425085802 250.89580424936966 C 0.0 **** -0.24
36672 H 272.54333769544246 230.56613037958408 250.01702491348252 H 0.0 **** 0.06
36673 H 272.4077288663582 229.38424358313483 251.33991874858395 H 0.0 **** 0.06
36674 H 273.2103276599363 230.94832238387892 251.622209302402 H 0.0 **** 0.06
36675 H 273.99343905897206 229.7168303177714 250.60248772245654 H 0.0 **** 0.06
36676 C 291.6816515065951 155.84470548828182 20.11811133189582 C 0.0 **** -0.24
36677 H 291.93128370872034 155.66459213291978 21.16385092368762 H 0.0 **** 0.06
36678 H 292.0869987930066 155.04043452176688 19.503860453685775 H 0.0 **** 0.06
36679 H 292.10897021953394 156.7961606809153 19.801259497990657 H 0.0 **** 0.06
36680 H 290.59793692872887 155.87772278279277 20.00446748712028 H 0.0 **** 0.06
36681 C 278.25448825347877 25.397824875843412 117.12861770126256 C 0.0 **** -0.24
36682 H 278.0828829945403 24.515112940907215 116.5132823283135 H 0.0 **** 0.06
36683 H 279.3268724531247 25.547992179752242 117.25596864221944 H 0.0 **** 0.06
36684 H 277.7890950903925 25.256939156906668 118.10322313925084 H 0.0 **** 0.06
36685 H 277.8203695295251 26.271007072578897 116.6401710399063 H 0.0 **** 0.06
36686 C 6.188287301514819 116.59961815031716 186.76341508524257 C 0.0 **** -0.24
36687 H 6.676993570899654 116.15002234117782 185.8994792443114 H 0.0 **** 0.06
36688 H 6.3569531250464735 117.67610843022527 186.7571013184629 H 0.0 **** 0.06
36689 H 6.601644454694991 116.1719296554152 187.67737064743363 H 0.0 **** 0.06
36690 H 5.1174774180882565 116.3987161680449 186.72076604982487 H 0.0 **** 0.06
36691 C 116.17501993507261 62.53455758219502 293.07163446944116 C 0.0 **** -0.24
36692 H 116.49486224287352 61.792984103786296 293.8030994518293 H 0.0 **** 0.06
36693 H 117.03153105327132 62.85317030830686 292.4779662264862 H 0.0 **** 0.06
36694 H 115.75019468208566 63.394815295869506 293.58823829953076 H 0.0 **** 0.06
36695 H 115.42111232633994 62.09543412329313 292.417281154289 H 0.0 **** 0.06
36696 C 274.65195452282893 20.621468308804026 180.23424210510626 C 0.0 **** -0.24
36697 H 275.5385071834406 21.21488670802421 180.01220307631104 H 0.0 **** 0.06
36698 H 274.2286089702438 20.23904483662011 179.30559245110544 H 0.0 **** 0.06
36699 H 273.914879110088 21.245583972812483 180.7396457303434 H 0.0 **** 0.06
36700 H 274.9250908390553 19.78780507775207 180.8801349088406 H 0.0 **** 0.06
36701 C 9.822736451527817 229.91481095653995 155.05835230396508 C 0.0 **** -0.24
36702 H 10.033744251227162 230.43751965554316 155.99192483988014 H 0.0 **** 0.06
36703 H 9.279109177273781 230.57920904474366 154.38568379493915 H 0.0 **** 0.06
36704 H 9.217554408862682 229.03218787905186 155.26558538232456 H 0.0 **** 0.06
36705 H 10.759704722433455 229.61217346595478 154.5928414555629 H 0.0 **** 0.06
36706 C 226.54941186049166 221.29550220603414 280.7090610262004 C 0.0 **** -0.24
36707 H 227.06023810007324 221.24429436164974 281.6707728651413 H 0.0 **** 0.06
36708 H 226.46545639189605 220.29295689458678 280.28866034679913 H 0.0 **** 0.06
36709 H 227.120267850696 221.92809104613514 280.0287631861798 H 0.0 **** 0.06
36710 H 225.5540308758856 221.71596295806148 280.8480962592254 H 0.0 **** 0.06
36711 C 236.20688773356295 133.44509042617796 14.896727760613942 C 0.0 **** -0.24
36712 H 237.2416885050033 133.78048286114563 14.965710568179631 H 0.0 **** 0.06
36713 H 236.1679110022529 132.49831030910096 14.357785671451083 H 0.0 **** 0.06
36714 H 235.61857687541334 134.1910572742324 14.36278474512767 H 0.0 **** 0.06
36715 H 235.80123219963468 133.31069935230033 15.899044563419451 H 0.0 **** 0.06
36716 C 282.60858323524013 171.88404240651124 92.93761758978391 C 0.0 **** -0.24
36717 H 283.40041593752375 172.4680330814822 92.46819857183215 H 0.0 **** 0.06
36718 H 282.0966842648049 171.28976295940208 92.18034700716771 H 0.0 **** 0.06
36719 H 281.89593228933495 172.55737110567628 93.41467780128295 H 0.0 **** 0.06
36720 H 283.0409759583311 171.22236175487456 93.6874639697107 H 0.0 **** 0.06
36721 C 82.53259716806204 238.26496035732168 248.01066492098698 C 0.0 **** -0.24
36722 H 83.4052971235487 237.61590854584165 247.93016095036037 H 0.0 **** 0.06
36723 H 82.13282385504925 238.45941047722016 247.01599874884286 H 0.0 **** 0.06
36724 H 82.82214820400799 239.20597459033817 248.47731227853166 H 0.0 **** 0.06
36725 H 81.77187765679528 237.77581667494928 248.6198583528967 H 0.0 **** 0.06
36726 C 214.92770037314554 102.80123293079231 204.26336660172194 C 0.0 **** -0.24
36727 H 215.6556042153358 101.98987658173715 204.25204308307428 H 0.0 **** 0.06
36728 H 214.51561895768293 102.90423733418689 205.26754704018475 H 0.0 **** 0.06
36729 H 214.12363863807298 102.57661606558852 203.56256610233527 H 0.0 **** 0.06
36730 H 215.4152302013921 103.7310666266797 203.97212733587105 H 0.0 **** 0.06
36731 C 101.12164906196736 196.36719586498492 141.63966936818576 C 0.0 **** -0.24
36732 H 100.85812941687672 195.70339118739366 142.4635984308875 H 0.0 **** 0.06
36733 H 100.21548005911183 196.81673696700057 141.23239932228478 H 0.0 **** 0.06
36734 H 101.62680082971778 195.79590933645306 140.8611690524649 H 0.0 **** 0.06
36735 H 101.78523461006864 197.151020162841 142.003983844224 H 0.0 **** 0.06
36736 C 92.64024773815783 198.20815818832932 14.771300857221192 C 0.0 **** -0.24
36737 H 92.50883977305273 198.73916363684572 13.8279438118538 H 0.0 **** 0.06
36738 H 91.88640320901865 198.54391561187867 15.483836983428958 H 0.0 **** 0.06
36739 H 93.63353643278899 198.4144804943225 15.167988414536666 H 0.0 **** 0.06
36740 H 92.53056291644467 197.13694556666985 14.6034911222374 H 0.0 **** 0.06
36741 C 193.4899898932827 280.46340128659534 185.95101943451704 C 0.0 **** -0.24
36742 H 194.23725553689093 280.5431242474732 186.74084894747483 H 0.0 **** 0.06
36743 H 192.76924673593317 279.6878403743864 186.20972568027048 H 0.0 **** 0.06
36744 H 193.98037246884206 280.20624990355276 185.0116433384286 H 0.0 **** 0.06
36745 H 192.97438003603452 281.41815863777947 185.84230315005686 H 0.0 **** 0.06
36746 C 120.30296963206041 34.938361680529425 96.5859424382636 C 0.0 **** -0.24
36747 H 120.71899551304725 34.52280404746318 95.6683997047329 H 0.0 **** 0.06
36748 H 119.26432124456332 35.22311138581753 96.41757236086076 H 0.0 **** 0.06
36749 H 120.87834584915646 35.81565421556499 96.88089390017515 H 0.0 **** 0.06
36750 H 120.35147514430295 34.19007541978448 97.3773141835506 H 0.0 **** 0.06
36751 C 36.93476041286027 76.59495283208778 168.33045342033654 C 0.0 **** -0.24
36752 H 37.90168424219169 76.16673047240397 168.59342730884578 H 0.0 **** 0.06
36753 H 36.51222374723494 76.04873293881022 167.48762607117243 H 0.0 **** 0.06
36754 H 37.06354428356934 77.64227686190895 168.0577898183165 H 0.0 **** 0.06
36755 H 36.26128755342532 76.5222129042547 169.18494248669379 H 0.0 **** 0.06
36756 C 151.27269005668177 123.0491791906939 6.497322736231226 C 0.0 **** -0.24
36757 H 150.9778254399517 122.11462399938011 6.0189245682918795 H 0.0 **** 0.06
36758 H 152.2207872594101 123.38754602765559 6.078621254962769 H 0.0 **** 0.06
36759 H 151.38524314310757 122.887842467197 7.569189151436575 H 0.0 **** 0.06
36760 H 150.50710715815154 123.80462256960871 6.321765125868325 H 0.0 **** 0.06
36761 C 117.82385117820766 80.16902373143779 83.38922686224697 C 0.0 **** -0.24
36762 H 118.2167098732643 79.38056252607456 84.0307541967255 H 0.0 **** 0.06
36763 H 116.97659787020936 80.64838801258807 83.8803114487404 H 0.0 **** 0.06
36764 H 117.49852274141543 79.738018164631 82.44184892068327 H 0.0 **** 0.06
36765 H 118.6023983352689 80.90846685447048 83.20442010559816 H 0.0 **** 0.06
36766 C 153.90261640694115 154.0498230477711 146.99918025874496 C 0.0 **** -0.24
36767 H 153.62290568335175 153.0640879050389 147.37200661655197 H 0.0 **** 0.06
36768 H 153.30370593038327 154.28902385603914 146.12019245094473 H 0.0 **** 0.06
36769 H 154.95845254777856 154.05003537611236 146.7306000225787 H 0.0 **** 0.06
36770 H 153.72357357042546 154.79488060497357 147.77416686998313 H 0.0 **** 0.06
36771 C 273.4826269122405 172.55404666086514 157.21234912588534 C 0.0 **** -0.24
36772 H 273.6978755421766 173.5123233325594 157.68639997058222 H 0.0 **** 0.06
36773 H 272.46297200380616 172.55981045959146 156.82744784599373 H 0.0 **** 0.06
36774 H 273.5909748589986 171.75518795052244 157.94500922920275 H 0.0 **** 0.06
36775 H 274.1802275583009 172.3914136909459 156.39089297691595 H 0.0 **** 0.06
36776 C 251.23764681018116 151.52380745520946 162.6486795839715 C 0.0 **** -0.24
36777 H 251.3861037020848 151.34486887030334 163.71418082265825 H 0.0 **** 0.06
36778 H 250.16993716207924 151.51980234439526 162.42590969522803 H 0.0 **** 0.06
36779 H 251.731607954014 150.7383049624217 162.0764780691121 H 0.0 **** 0.06
36780 H 251.66159870412514 152.4908654322457 162.38084753927825 H 0.0 **** 0.06
36781 C 5.7752457966613235 296.3297599189416 179.10722017715818 C 0.0 **** -0.24
36782 H 5.352116023708106 296.3494903115361 180.1113467901758 H 0.0 **** 0.06
36783 H 5.646923356411705 295.33573555992496 178.6782629800037 H 0.0 **** 0.06
36784 H 6.836338196699529 296.57142943920775 179.15487628586163 H 0.0 **** 0.06
36785 H 5.262572095466979 297.06280021184364 178.48360414190427 H 0.0 **** 0.06
36786 C 160.21164608663764 276.18243625426953 145.81240003916577 C 0.0 **** -0.24
36787 H 161.08665697289234 276.04322095611076 145.1779282925292 H 0.0 **** 0.06
36788 H 159.62411277645828 277.0234800202607 145.44240497283388 H 0.0 **** 0.06
36789 H 160.53286872083316 276.3840740051204 146.8338135608418 H 0.0 **** 0.06
36790 H 159.6031304398134 275.2777047876149 145.79484910127067 H 0.0 **** 0.06
36791 C 178.498313853004 59.15133750784551 171.27320730991755 C 0.0 **** -0.24
36792 H 179.04907465354682 58.22753082881195 171.45012568118625 H 0.0 **** 0.06
36793 H 177.62811972327182 58.9425320493871 170.6511246740991 H 0.0 **** 0.06
36794 H 179.14486312136268 59.8678860201949 170.76518503726214 H 0.0 **** 0.06
36795 H 178.17285457055004 59.5685216200566 172.22639775462812 H 0.0 **** 0.06
36796 C 155.32298050666634 59.67483881268228 226.50240384105956 C 0.0 **** -0.24
36797 H 155.762766865601 60.461110081714196 227.11555129281825 H 0.0 **** 0.06
36798 H 154.2732411698051 59.55029898188519 226.77018828785515 H 0.0 **** 0.06
36799 H 155.85555321197648 58.739783072456135 226.67370597937014 H 0.0 **** 0.06
36800 H 155.39909202870598 59.94930180160932 225.45047587207117 H 0.0 **** 0.06
36801 C 59.58743146651909 11.94954417952485 64.7696614470189 C 0.0 **** -0.24
36802 H 59.3125471009962 12.6305385192572 63.96341046225888 H 0.0 **** 0.06
36803 H 59.411806810483995 12.434336524291865 65.72970504504323 H 0.0 **** 0.06
36804 H 60.64213782407893 11.689271094768088 64.68093844976858 H 0.0 **** 0.06
36805 H 58.983038849754564 11.045256419582458 64.70273193726533 H 0.0 **** 0.06
36806 C 163.34297284959428 258.22788254829453 162.95816759186465 C 0.0 **** -0.24
36807 H 163.58665082710553 258.55308677165607 161.94700509058157 H 0.0 **** 0.06
36808 H 162.6536658075396 257.38448214331777 162.91190842111905 H 0.0 **** 0.06
36809 H 162.8767977401082 259.05008113229877 163.5014102698907 H 0.0 **** 0.06
36810 H 164.25538877118453 257.92467119498383 163.47234986931073 H 0.0 **** 0.06
36811 C 229.55892908504495 174.41253122948183 230.50243660599853 C 0.0 **** -0.24
36812 H 228.67246720576645 174.1691522681433 229.91743031201247 H 0.0 **** 0.06
36813 H 229.48570385212724 175.43933691454578 230.86280240191758 H 0.0 **** 0.06
36814 H 230.4463830967353 174.3089693224772 229.8773944774717 H 0.0 **** 0.06
36815 H 229.63178367312537 173.73340393208014 231.3523834729222 H 0.0 **** 0.06
36816 C 157.63465199721531 122.8385098633548 166.49916922226032 C 0.0 **** -0.24
36817 H 157.9512951882666 123.8755982117527 166.6164091629139 H 0.0 **** 0.06
36818 H 157.93595062619835 122.47690484904976 165.51560005664538 H 0.0 **** 0.06
36819 H 156.55055517138072 122.77749169421517 166.59287729926564 H 0.0 **** 0.06
36820 H 158.10127041694267 122.22624290537388 167.27081407074508 H 0.0 **** 0.06
36821 C 281.9364078414413 200.67599546658124 74.04684448639165 C 0.0 **** -0.24
36822 H 281.732696516834 201.5247718317113 74.69968116445341 H 0.0 **** 0.06
36823 H 281.34092909550196 200.76555819779918 73.13836722770304 H 0.0 **** 0.06
36824 H 281.6783342358996 199.75150723911878 74.56252547044744 H 0.0 **** 0.06
36825 H 282.99586454156 200.66412665479902 73.78792753312621 H 0.0 **** 0.06
36826 C 139.58765699848746 0.00533973120752762 20.058018029225067 C 0.0 **** -0.24
36827 H 139.9914414538988 0.48660133963824137 19.16821090397538 H 0.0 **** 0.06
36828 H 140.07929121051097 -0.956490613395772 20.205264562341114 H 0.0 **** 0.06
36829 H 138.51580330886804 -0.15010350966468877 19.93210766274335 H 0.0 **** 0.06
36830 H 139.76254116588822 0.6405884116689435 20.926599628134 H 0.0 **** 0.06
36831 C 226.2403659308272 184.87152323412965 275.91624359415766 C 0.0 **** -0.24
36832 H 226.09387556806985 183.79295111267436 275.8650762295991 H 0.0 **** 0.06
36833 H 226.52385381216416 185.24698183934998 274.93337798610315 H 0.0 **** 0.06
36834 H 227.03085891172373 185.09647688825982 276.6331348387022 H 0.0 **** 0.06
36835 H 225.3142241825547 185.3493436028088 276.2351362182594 H 0.0 **** 0.06
36836 C 307.81865462571596 164.40139694087645 5.8744481546066964 C 0.0 **** -0.24
36837 H 307.2359470834715 164.8582387483453 5.075212376958078 H 0.0 **** 0.06
36838 H 307.4620277947366 163.38529790220974 6.0487852008192675 H 0.0 **** 0.06
36839 H 307.7063504350747 164.98729956210508 6.786891160329063 H 0.0 **** 0.06
36840 H 308.87004540874204 164.37403123700182 5.588095417826182 H 0.0 **** 0.06
36841 C 120.02492695167663 90.49115029861471 49.01190170425488 C 0.0 **** -0.24
36842 H 120.92129858448723 91.0504540051941 49.27981327462169 H 0.0 **** 0.06
36843 H 119.44790988299098 90.27843889041179 49.91211751803107 H 0.0 **** 0.06
36844 H 120.31103721481733 89.5547194594634 48.533177827668 H 0.0 **** 0.06
36845 H 119.42082607371333 91.08216974451386 48.32381922959115 H 0.0 **** 0.06
36846 C 49.007533012914564 5.549646477153388 71.13401449218134 C 0.0 **** -0.24
36847 H 48.223318724898945 6.231648268148319 71.46392487600056 H 0.0 **** 0.06
36848 H 49.35556560909754 4.9584325995438405 71.9809453111869 H 0.0 **** 0.06
36849 H 49.838818737243514 6.122127583367728 70.72389771322688 H 0.0 **** 0.06
36850 H 48.61013362975601 4.885640030162861 70.36524370294524 H 0.0 **** 0.06
36851 C 108.59838646098484 311.40391720421394 10.926718218292194 C 0.0 **** -0.24
36852 H 109.42038126272308 310.70763741408416 10.765866293088948 H 0.0 **** 0.06
36853 H 107.80631184634137 310.9069581645376 11.48780009506197 H 0.0 **** 0.06
36854 H 108.21013283977683 311.7353876549181 9.9642251996504 H 0.0 **** 0.06
36855 H 108.95733470840631 312.2660814785644 11.489663396832952 H 0.0 **** 0.06
36856 C 259.3425588299811 131.68024029154097 291.19355638231116 C 0.0 **** -0.24
36857 H 259.8167705563717 131.25568247635383 292.07854013981677 H 0.0 **** 0.06
36858 H 259.5070073735974 132.7577528387101 291.17647603294876 H 0.0 **** 0.06
36859 H 258.272753697445 131.47573974952 291.2212484751628 H 0.0 **** 0.06
36860 H 259.7758638193401 131.23155325543812 290.30002961892166 H 0.0 **** 0.06
36861 C 110.64801471926626 106.67545440601359 203.33882532472535 C 0.0 **** -0.24
36862 H 110.41144399215139 107.64251275422998 202.89575446204913 H 0.0 **** 0.06
36863 H 111.66079121404636 106.38569841979393 203.06037679090645 H 0.0 **** 0.06
36864 H 109.94290093759861 105.92841569886858 202.9764138623243 H 0.0 **** 0.06
36865 H 110.57586941379554 106.74691428283685 204.42414181837535 H 0.0 **** 0.06
36866 C 67.45988190744674 182.47472187019184 223.59910987852953 C 0.0 **** -0.24
36867 H 68.11715439615594 182.05664828328355 222.83595936496073 H 0.0 **** 0.06
36868 H 66.42175438483599 182.27874398524375 223.33010566471864 H 0.0 **** 0.06
36869 H 67.6212954198619 183.55026962414075 223.66738911623162 H 0.0 **** 0.06
36870 H 67.68033230345486 182.0117840493241 224.56035778696423 H 0.0 **** 0.06
36871 C 163.1444199942199 71.52197391934635 120.0901505575981 C 0.0 **** -0.24
36872 H 162.2004942441563 71.7834089544424 120.56921762398434 H 0.0 **** 0.06
36873 H 162.94366932491312 71.01112152423514 119.14783407455917 H 0.0 **** 0.06
36874 H 163.71407671468933 70.86464088189814 120.74597053465612 H 0.0 **** 0.06
36875 H 163.7160547159508 72.42944358536243 119.89742303750407 H 0.0 **** 0.06
36876 C 176.3826124590526 183.76834641565 140.40673587638446 C 0.0 **** -0.24
36877 H 175.86009061437335 184.64946612820182 140.03507834403698 H 0.0 **** 0.06
36878 H 177.13042491295386 183.4548886290147 139.67848104562677 H 0.0 **** 0.06
36879 H 175.66657561826753 182.96131108355905 140.56223367620947 H 0.0 **** 0.06
36880 H 176.87227516922923 184.00684103837824 141.35091864219788 H 0.0 **** 0.06
36881 C 135.66796686352666 218.8196402571863 266.43806685378854 C 0.0 **** -0.24
36882 H 135.46733727965898 218.67494793462137 265.3759730458352 H 0.0 **** 0.06
36883 H 136.08004675222918 219.81663321050567 266.5974267334442 H 0.0 **** 0.06
36884 H 136.38553252494677 218.0719300804517 266.77636164314293 H 0.0 **** 0.06
36885 H 134.7406154333102 218.71417764378495 267.0009347878417 H 0.0 **** 0.06
36886 C 186.47593187053047 257.76852166123837 310.2456245049254 C 0.0 **** -0.24
36887 H 186.19048565329587 256.9230324799962 310.87244095053694 H 0.0 **** 0.06
36888 H 187.4768656187781 258.1024337972348 310.5209891212031 H 0.0 **** 0.06
36889 H 185.76740225949317 258.5837755169932 310.39033901220813 H 0.0 **** 0.06
36890 H 186.46994729727703 257.4623287020653 309.1995784227061 H 0.0 **** 0.06
36891 C 296.56969087233114 198.85778753788566 90.28190498517867 C 0.0 **** -0.24
36892 H 296.67713479937174 197.835840616511 89.91713842105531 H 0.0 **** 0.06
36893 H 296.09210321880937 199.46879894419442 89.51571542236368 H 0.0 **** 0.06
36894 H 297.55380479462224 199.2664431524596 90.5122975385157 H 0.0 **** 0.06
36895 H 295.9561271858899 198.85846156468182 91.18358924509562 H 0.0 **** 0.06
36896 C 100.49001384713316 67.151873828732 289.7490094402507 C 0.0 **** -0.24
36897 H 100.32029559555906 68.22868623638024 289.7534932857777 H 0.0 **** 0.06
36898 H 99.54286279095288 66.63412003650504 289.89778858440843 H 0.0 **** 0.06
36899 H 101.17838827201547 66.89044009653733 290.5530096934383 H 0.0 **** 0.06
36900 H 100.91958427511534 66.85644026272576 288.79194956545257 H 0.0 **** 0.06
36901 C 16.031513840447886 236.23654541037592 31.64342375488684 C 0.0 **** -0.24
36902 H 16.87562191926183 235.60941709368805 31.354908625483972 H 0.0 **** 0.06
36903 H 16.2216400721195 237.26500671485428 31.33738665153703 H 0.0 **** 0.06
36904 H 15.903557715100007 236.19661989738313 32.72479303956476 H 0.0 **** 0.06
36905 H 15.126695209118182 235.87282400474024 31.157324660329493 H 0.0 **** 0.06
36906 C 294.38472744869915 87.98645236483739 272.5330230592892 C 0.0 **** -0.24
36907 H 295.03500374620955 88.18950636942637 271.68290356641603 H 0.0 **** 0.06
36908 H 293.3554171929619 88.22931919779509 272.26844707690594 H 0.0 **** 0.06
36909 H 294.6960279567007 88.59474136696664 273.3818386048795 H 0.0 **** 0.06
36910 H 294.45197669618983 86.93120607940978 272.7969817002131 H 0.0 **** 0.06
36911 C 244.721884834831 258.77837760822274 89.37497417744177 C 0.0 **** -0.24
36912 H 245.80794387579158 258.7330293422942 89.2894017059752 H 0.0 **** 0.06
36913 H 244.27430266214162 258.66050179992413 88.38835528426483 H 0.0 **** 0.06
36914 H 244.43137297680926 259.74215191849055 89.79367489544441 H 0.0 **** 0.06
36915 H 244.37613858620853 257.9792844426479 90.02986270928076 H 0.0 **** 0.06
36916 C 170.11608896651597 239.75175403284962 9.298964856797369 C 0.0 **** -0.24
36917 H 170.37181569954066 239.04105228550338 10.08454312287472 H 0.0 **** 0.06
36918 H 170.47877678220215 240.74298805791958 9.574573301144781 H 0.0 **** 0.06
36919 H 169.0335486734947 239.78268653102126 9.174317170229628 H 0.0 **** 0.06
36920 H 170.5809153835383 239.44252359163195 8.363144744142346 H 0.0 **** 0.06
36921 C 85.52049152491944 35.27468893399879 245.51148858825331 C 0.0 **** -0.24
36922 H 85.6188388754683 34.68564167295068 246.42346362844677 H 0.0 **** 0.06
36923 H 86.20533859821856 36.12274312728724 245.55232887941523 H 0.0 **** 0.06
36924 H 84.49667051279269 35.63734540121493 245.4217658464285 H 0.0 **** 0.06
36925 H 85.76290677078873 34.65289054583988 244.6497311034336 H 0.0 **** 0.06
36926 C 73.61494564915006 202.02055447205367 169.25627077843137 C 0.0 **** -0.24
36927 H 73.74877135167094 200.95192886809724 169.08558582328953 H 0.0 **** 0.06
36928 H 73.06875160201719 202.17415774066143 170.18776820487795 H 0.0 **** 0.06
36929 H 73.05204072010125 202.45270525140768 168.42891166966183 H 0.0 **** 0.06
36930 H 74.59062873601397 202.50262542161516 169.32238028092763 H 0.0 **** 0.06
36931 C 243.30536639727683 269.36258788140645 278.90257984932646 C 0.0 **** -0.24
36932 H 243.94948353608802 268.67679452809625 279.4534046311402 H 0.0 **** 0.06
36933 H 243.0057418695427 270.1827353188525 279.5556263076293 H 0.0 **** 0.06
36934 H 242.41874958986568 268.8303596112755 278.5573696856005 H 0.0 **** 0.06
36935 H 243.8472915978764 269.7600701491321 278.04526294917923 H 0.0 **** 0.06
36936 C 172.46730380946752 111.13957451501355 58.34834504076497 C 0.0 **** -0.24
36937 H 172.18069658706662 110.09593652145202 58.47909055627679 H 0.0 **** 0.06
36938 H 171.57658074821416 111.76673606854595 58.364224548643364 H 0.0 **** 0.06
36939 H 172.97814757938153 111.2582927641007 57.392523419079 H 0.0 **** 0.06
36940 H 173.13691113110224 111.43538351508462 59.15686246597795 H 0.0 **** 0.06
36941 C 232.54134919449467 176.13550281404628 306.50493611360156 C 0.0 **** -0.24
36942 H 232.13245756381954 176.52738766019485 305.5740584374013 H 0.0 **** 0.06
36943 H 232.74966070666449 175.0711085449147 306.3908856456727 H 0.0 **** 0.06
36944 H 231.81866037293713 176.27981505672273 307.30844230310146 H 0.0 **** 0.06
36945 H 233.46394042261534 176.66316308802544 306.74686050491516 H 0.0 **** 0.06
36946 C 313.0299988179318 154.59821335276 103.33220858237055 C 0.0 **** -0.24
36947 H 312.5351084239703 155.00125928682866 104.21567325167015 H 0.0 **** 0.06
36948 H 312.86712099062026 153.52129401857366 103.28502900199743 H 0.0 **** 0.06
36949 H 314.09992216365214 154.80106449987562 103.39152807491519 H 0.0 **** 0.06
36950 H 312.6196367236658 155.06827428344104 102.43902494021992 H 0.0 **** 0.06
36951 C 25.777032700990958 247.58182241097694 146.15430913016104 C 0.0 **** -0.24
36952 H 25.47932048438949 248.5358768056421 145.72163490069062 H 0.0 **** 0.06
36953 H 26.21450999680522 246.95167613565158 145.37948744712023 H 0.0 **** 0.06
36954 H 24.902664165053096 247.08482584790832 146.57562662777718 H 0.0 **** 0.06
36955 H 26.511569451182083 247.75218937331525 146.94174815197553 H 0.0 **** 0.06
36956 C 136.78134314858355 277.67856537880544 176.79395751930048 C 0.0 **** -0.24
36957 H 137.4858575764953 278.46560043642387 176.52589113436545 H 0.0 **** 0.06
36958 H 137.04914047691983 277.26706999968474 177.76709548154662 H 0.0 **** 0.06
36959 H 136.8154627328339 276.88939096318984 176.04345905719447 H 0.0 **** 0.06
36960 H 135.77386442740237 278.0931500965222 176.8393611753749 H 0.0 **** 0.06
36961 C 52.044173417761755 101.72408077373274 242.0076178878919 C 0.0 **** -0.24
36962 H 52.918954677967605 102.0404536779541 242.5750826699022 H 0.0 **** 0.06
36963 H 51.895141577851774 102.39963385465842 241.16409556777418 H 0.0 **** 0.06
36964 H 51.16554230398589 101.74818006050037 242.65156426480672 H 0.0 **** 0.06
36965 H 52.19743687022185 100.71042924530357 241.63926040320092 H 0.0 **** 0.06
36966 C 124.52606572343615 286.7582263171055 186.8236260951419 C 0.0 **** -0.24
36967 H 125.50947051584834 286.38851555198096 186.53498737673408 H 0.0 **** 0.06
36968 H 124.1482133043796 287.4284889141385 186.05155229655617 H 0.0 **** 0.06
36969 H 124.60362407843004 287.2978294486664 187.76775082947245 H 0.0 **** 0.06
36970 H 123.84267575426301 285.9167508819429 186.9419966850253 H 0.0 **** 0.06
36971 C 216.830396505309 12.88821349103749 305.0813962244671 C 0.0 **** -0.24
36972 H 216.8899459551331 11.829217422874393 304.8317173562556 H 0.0 **** 0.06
36973 H 217.79417401578354 13.22563079281339 305.46502342989504 H 0.0 **** 0.06
36974 H 216.06401388046484 13.039504052247594 305.84087182220367 H 0.0 **** 0.06
36975 H 216.57509702888896 13.458527780334748 304.18851429678756 H 0.0 **** 0.06
36976 C 193.90195508469031 23.41616455888459 34.1980106559339 C 0.0 **** -0.24
36977 H 193.9954743480447 24.401103829791197 33.74029553592649 H 0.0 **** 0.06
36978 H 193.63168160447918 22.685327341802264 33.43552487901553 H 0.0 **** 0.06
36979 H 193.12844678878565 23.444752640382177 34.96517425371988 H 0.0 **** 0.06
36980 H 194.85329999877257 23.13561160200831 34.650537168729244 H 0.0 **** 0.06
36981 C 183.21248581392865 281.71184652126874 78.62484523019646 C 0.0 **** -0.24
36982 H 182.51848685309972 282.53414967636866 78.44907459508104 H 0.0 **** 0.06
36983 H 183.03510641567544 281.29335546162076 79.61567272934516 H 0.0 **** 0.06
36984 H 184.2356226702227 282.081161401923 78.56263721203987 H 0.0 **** 0.06
36985 H 183.05864854947083 280.9399781536821 77.87054908775195 H 0.0 **** 0.06
36986 C 130.28470574698775 160.15395897303716 280.3177320680885 C 0.0 **** -0.24
36987 H 129.3720688703269 160.42670261863736 280.8468588783504 H 0.0 **** 0.06
36988 H 131.03766164771136 159.82696020483587 281.03546431007703 H 0.0 **** 0.06
36989 H 130.65772609478793 161.01895345101957 279.7688288656807 H 0.0 **** 0.06
36990 H 130.0720072307377 159.34474333580135 279.6192589169746 H 0.0 **** 0.06
36991 C 35.908414596933596 25.001684712633363 9.328821319752038 C 0.0 **** -0.24
36992 H 34.99731202311534 24.595317722059633 8.890080716158167 H 0.0 **** 0.06
36993 H 36.66946067566252 24.22303553920372 9.370205817316872 H 0.0 **** 0.06
36994 H 35.69843404468594 25.35908403834776 10.336729667673481 H 0.0 **** 0.06
36995 H 36.26773157766496 25.828870412251604 8.716753941879318 H 0.0 **** 0.06
36996 C 100.88580758139955 295.0768633136878 114.31706973339513 C 0.0 **** -0.24
36997 H 100.21189665966062 294.59407767003364 113.60901151265787 H 0.0 **** 0.06
36998 H 100.48588382985298 294.97384763241917 115.3264517810662 H 0.0 **** 0.06
36999 H 100.97851336987469 296.1330027169168 114.06796224944179 H 0.0 **** 0.06
37000 H 101.86603949320386 294.60251192252554 114.26515144392638 H 0.0 **** 0.06
37001 C 146.66068074694044 62.04189760988328 240.5086244427199 C 0.0 **** -0.24
37002 H 145.5702364234947 62.04355352096508 240.5241418784884 H 0.0 **** 0.06
37003 H 147.0209061841073 63.03231106543382 240.22784129185706 H 0.0 **** 0.06
37004 H 147.0118388852891 61.30803673509905 239.78400901161146 H 0.0 **** 0.06
37005 H 147.03782872961915 61.785173107319366 241.49887859282885 H 0.0 **** 0.06
37006 C 18.430303780552165 143.0031140711472 45.41608130854084 C 0.0 **** -0.24
37007 H 18.72957543553342 144.02357318580258 45.65408765148814 H 0.0 **** 0.06
37008 H 19.31903584351012 142.3940213504647 45.24739303630315 H 0.0 **** 0.06
37009 H 17.81549314656195 143.00507962040177 44.515655090649545 H 0.0 **** 0.06
37010 H 17.8576125308103 142.58953740463454 46.246359830840134 H 0.0 **** 0.06
37011 C 265.5419043695841 292.921759453192 301.520218287449 C 0.0 **** -0.24
37012 H 265.0381161567776 293.687131650594 300.92952277545 H 0.0 **** 0.06
37013 H 266.55265615253353 292.77659438212885 301.13984573050624 H 0.0 **** 0.06
37014 H 264.9879356951343 291.98545872671184 301.44704034792477 H 0.0 **** 0.06
37015 H 265.5872343797788 293.23715209689567 302.5620762506233 H 0.0 **** 0.06
37016 C 175.66494952013835 131.2961778963423 14.495982926504666 C 0.0 **** -0.24
37017 H 176.72949205662576 131.38091096682007 14.277252852013262 H 0.0 **** 0.06
37018 H 175.4743088303399 131.64638978665565 15.51092879389978 H 0.0 **** 0.06
37019 H 175.3577072327846 130.2540370675118 14.407552046911405 H 0.0 **** 0.06
37020 H 175.0994274881043 131.90342108832874 13.790122542902509 H 0.0 **** 0.06
37021 C 18.711722399275544 79.70477462252742 7.294975987072476 C 0.0 **** -0.24
37022 H 19.217521783814433 79.13956227585106 6.512779508351031 H 0.0 **** 0.06
37023 H 19.435978342985692 80.3279622738493 7.819857717149233 H 0.0 **** 0.06
37024 H 18.247995375915167 79.01352702665349 8.00023435720334 H 0.0 **** 0.06
37025 H 17.944192879630947 80.33630393583056 6.847752874834313 H 0.0 **** 0.06
37026 C 38.95131351900801 274.4784217302562 12.346942423275252 C 0.0 **** -0.24
37027 H 38.02382122617692 273.91198534286553 12.427708836632888 H 0.0 **** 0.06
37028 H 39.746866260217814 273.9502206701917 12.87398021423273 H 0.0 **** 0.06
37029 H 38.81382481304914 275.4650120615004 12.790841881947628 H 0.0 **** 0.06
37030 H 39.220769212808705 274.5877200795114 11.295897298159446 H 0.0 **** 0.06
37031 C 310.38449556598096 115.49272675293147 283.12403671985805 C 0.0 **** -0.24
37032 H 309.3460774023386 115.30272167163099 282.85260139351107 H 0.0 **** 0.06
37033 H 310.4998676611401 115.40299512628374 284.2037037333441 H 0.0 **** 0.06
37034 H 310.6629381976854 116.49958407390113 282.8113909295147 H 0.0 **** 0.06
37035 H 311.0283180413564 114.76664774063255 282.6278983954856 H 0.0 **** 0.06
37036 C 50.69656143961686 160.2196149763102 158.38452147277252 C 0.0 **** -0.24
37037 H 51.49137174170835 159.61734510870957 157.94555115952795 H 0.0 **** 0.06
37038 H 51.05489270972771 161.2385290398256 158.53627188886753 H 0.0 **** 0.06
37039 H 50.402420215266034 159.7909860457018 159.34252383681417 H 0.0 **** 0.06
37040 H 49.83796339027282 160.23271697787936 157.71297096965384 H 0.0 **** 0.06
37041 C 113.92967708975328 92.96852514459647 218.21868298531535 C 0.0 **** -0.24
37042 H 114.09856851707775 93.72670177277723 217.45445577235319 H 0.0 **** 0.06
37043 H 114.83127492366145 92.36656586310167 218.3393963935333 H 0.0 **** 0.06
37044 H 113.10140556804538 92.32665423889884 217.9171081510928 H 0.0 **** 0.06
37045 H 113.68657384427587 93.45424699972529 219.1642312103468 H 0.0 **** 0.06
37046 C 31.27154313864324 66.44269976435578 167.90992984860173 C 0.0 **** -0.24
37047 H 31.108641004272044 65.36820732215128 167.82870033269876 H 0.0 **** 0.06
37048 H 32.28423386598564 66.68183300072363 167.58381002343282 H 0.0 **** 0.06
37049 H 31.139759956213084 66.75311388116955 168.9457592806927 H 0.0 **** 0.06
37050 H 30.553670525518783 66.96773875714732 167.27900566798803 H 0.0 **** 0.06
37051 C 52.65973283368132 47.728229659239105 238.15826581786115 C 0.0 **** -0.24
37052 H 53.35785094351942 48.374820389471836 238.69126383726342 H 0.0 **** 0.06
37053 H 51.89340438822376 47.37599813607048 238.84772358400613 H 0.0 **** 0.06
37054 H 53.19895653783209 46.87467545137173 237.7458808438376 H 0.0 **** 0.06
37055 H 52.19233925576222 48.28824794876769 237.34866338080198 H 0.0 **** 0.06
37056 C 254.08379403539635 186.8196568662555 254.43858538072192 C 0.0 **** -0.24
37057 H 253.65976842222307 186.28068665983096 255.28669666619754 H 0.0 **** 0.06
37058 H 255.06568385898237 187.20841413875758 254.70936852168816 H 0.0 **** 0.06
37059 H 253.42681738961636 187.64657485789212 254.17008459998698 H 0.0 **** 0.06
37060 H 254.18124922449402 186.14294173283412 253.5906924296801 H 0.0 **** 0.06
37061 C 214.44286515208077 6.041309498327394 285.74627385355814 C 0.0 **** -0.24
37062 H 215.31186073978543 5.783697394790579 286.35229285131084 H 0.0 **** 0.06
37063 H 214.7550441709571 6.2040543544939055 284.7149680214484 H 0.0 **** 0.06
37064 H 213.98534645807592 6.950863049028612 286.13647935896097 H 0.0 **** 0.06
37065 H 213.7195699666098 5.226700926378442 285.7830474730598 H 0.0 **** 0.06
37066 C 159.07589070185372 68.27527249638888 44.54794889478978 C 0.0 **** -0.24
37067 H 158.41454945914535 69.11612741899592 44.75837016840839 H 0.0 **** 0.06
37068 H 159.91575957558945 68.29174347058395 45.24341301131139 H 0.0 **** 0.06
37069 H 159.44867561414503 68.35302683500649 43.526764768045325 H 0.0 **** 0.06
37070 H 158.52583898018628 67.34151704709902 44.66487713975306 H 0.0 **** 0.06
37071 C 17.991823956877113 187.91731363966056 180.66746510676268 C 0.0 **** -0.24
37072 H 18.939993497170903 187.82110889242546 181.1976146375365 H 0.0 **** 0.06
37073 H 17.85197313129673 188.95340156392473 180.35983885987497 H 0.0 **** 0.06
37074 H 17.176500347590732 187.61905303664975 181.3254137126928 H 0.0 **** 0.06
37075 H 18.002007115674303 187.27474894562778 179.78709855417668 H 0.0 **** 0.06
37076 C 199.73208620361663 312.27140334084993 55.77912635352314 C 0.0 **** -0.24
37077 H 198.92671712527942 311.73228572897045 56.280128557034175 H 0.0 **** 0.06
37078 H 200.60569661522072 311.6242695712332 55.696627347675445 H 0.0 **** 0.06
37079 H 199.98841282136118 313.1590869431117 56.35674978950357 H 0.0 **** 0.06
37080 H 199.4043251717044 312.56812526975557 54.78236953421953 H 0.0 **** 0.06
37081 C 120.66380421492008 46.99184277623149 50.92318050151903 C 0.0 **** -0.24
37082 H 121.4594088734354 47.50296667894389 50.38098410365515 H 0.0 **** 0.06
37083 H 119.70551393722539 47.20798181723134 50.45019211740336 H 0.0 **** 0.06
37084 H 120.64645362343927 47.33953830935067 51.95558697111085 H 0.0 **** 0.06
37085 H 120.84367887197064 45.91699339879219 50.90373125464404 H 0.0 **** 0.06
37086 C 215.04269997777791 273.8617593188614 197.97052911882844 C 0.0 **** -0.24
37087 H 215.82641396898475 274.5450463106655 197.64514840086724 H 0.0 **** 0.06
37088 H 214.65541753987364 274.1870273483751 198.93639006885365 H 0.0 **** 0.06
37089 H 215.45234906579853 272.856106874002 198.06323366648667 H 0.0 **** 0.06
37090 H 214.2366193364547 273.85885674240296 197.23734433910613 H 0.0 **** 0.06
37091 C 72.6147274382543 47.70636777563294 74.65431802784312 C 0.0 **** -0.24
37092 H 71.6926623669188 47.329074808118776 75.09594951283034 H 0.0 **** 0.06
37093 H 73.4700287035165 47.289609782269395 75.18771926325928 H 0.0 **** 0.06
37094 H 72.63443649107703 48.79421072744333 74.72958835049019 H 0.0 **** 0.06
37095 H 72.66314207563855 47.41374470830593 73.6056836248872 H 0.0 **** 0.06
37096 C 7.664492009181345 99.28874102365279 262.66094793620505 C 0.0 **** -0.24
37097 H 7.642373923297782 99.05361468989571 263.7252541652945 H 0.0 **** 0.06
37098 H 7.021481840187619 100.14686555617948 262.46490824647793 H 0.0 **** 0.06
37099 H 7.308751513072025 98.42936918636863 262.0915657272297 H 0.0 **** 0.06
37100 H 8.686786040732215 99.52353953917327 262.36276187896084 H 0.0 **** 0.06
37101 C 68.0676444820783 91.04631464778464 67.52428242099722 C 0.0 **** -0.24
37102 H 67.02600811319147 91.27745453877836 67.74437188053884 H 0.0 **** 0.06
37103 H 68.26796596784317 90.00279153181944 67.76891104233076 H 0.0 **** 0.06
37104 H 68.71569373202544 91.6905443809139 68.11773972058484 H 0.0 **** 0.06
37105 H 68.26043278096526 91.21339140409427 66.46420629986685 H 0.0 **** 0.06
37106 C 60.96020791841332 192.05953777939493 16.138643837205265 C 0.0 **** -0.24
37107 H 60.143109509036094 191.35161291699131 16.002813337243495 H 0.0 **** 0.06
37108 H 61.571925034882526 192.08515539114853 15.23757488791773 H 0.0 **** 0.06
37109 H 61.57299236470729 191.748452357158 16.985461667758543 H 0.0 **** 0.06
37110 H 60.55193397485559 193.05208882475694 16.330605192611685 H 0.0 **** 0.06
37111 C 150.80032845218017 21.889804995637064 219.6498372780888 C 0.0 **** -0.24
37112 H 150.96799279823364 21.09615090735747 220.37798300908958 H 0.0 **** 0.06
37113 H 149.82641533950527 22.346290279843913 219.82942789273335 H 0.0 **** 0.06
37114 H 150.82704019691704 21.47193428713649 218.64383235745595 H 0.0 **** 0.06
37115 H 151.57957566773285 22.645092846033492 219.7510814842937 H 0.0 **** 0.06
37116 C 286.62776004005 75.60158837206686 66.18364077364541 C 0.0 **** -0.24
37117 H 286.5091127188964 74.65392548400965 65.6584206167067 H 0.0 **** 0.06
37118 H 285.6540096338797 75.9475466228383 66.53320821209923 H 0.0 **** 0.06
37119 H 287.0550100612286 76.3410304218541 65.50745942422225 H 0.0 **** 0.06
37120 H 287.2919980987125 75.46370667681236 67.03654802977098 H 0.0 **** 0.06
37121 C 123.19635587324782 209.87151478991916 271.97627763025235 C 0.0 **** -0.24
37122 H 122.22526138869355 210.17788730051183 271.58775255309166 H 0.0 **** 0.06
37123 H 123.12361729687555 208.86149430422645 272.3797092456733 H 0.0 **** 0.06
37124 H 123.50308945481882 210.55740490482464 272.76682213653095 H 0.0 **** 0.06
37125 H 123.93168098821687 209.89062845978555 271.1725625140477 H 0.0 **** 0.06
37126 C 115.86220251028496 237.5871121835337 226.58072096373692 C 0.0 **** -0.24
37127 H 115.89282167467599 238.08305876772144 227.5511249025767 H 0.0 **** 0.06
37128 H 114.82513214987611 237.47583357548905 226.26345689245045 H 0.0 **** 0.06
37129 H 116.32552127910637 236.60325077200076 226.6604253885754 H 0.0 **** 0.06
37130 H 116.40369484559182 238.1860870935671 225.84938078828776 H 0.0 **** 0.06
37131 C 226.82749533286895 80.79237577208806 134.68741730224423 C 0.0 **** -0.24
37132 H 227.49170842277397 81.54710464590957 135.1081567071874 H 0.0 **** 0.06
37133 H 225.80317213556145 81.16477325027478 134.69550773504758 H 0.0 **** 0.06
37134 H 226.88881580089426 79.88230199224793 135.28409381846288 H 0.0 **** 0.06
37135 H 227.12786945037044 80.57524635850493 133.66260631723085 H 0.0 **** 0.06
37136 C 81.58339892882063 109.46764643362897 60.17937011616357 C 0.0 **** -0.24
37137 H 80.5732655562131 109.87162397106786 60.10854589081589 H 0.0 **** 0.06
37138 H 82.20263707771403 109.89832362761072 59.392698254407094 H 0.0 **** 0.06
37139 H 81.54961425317433 108.3838167299534 60.06481828125379 H 0.0 **** 0.06
37140 H 82.0054598679366 109.71735604275776 61.15278011423186 H 0.0 **** 0.06
37141 C 21.03369550829717 63.89735917857223 30.798982723599522 C 0.0 **** -0.24
37142 H 21.507070949142133 62.95711060995808 30.51749974377364 H 0.0 **** 0.06
37143 H 19.957696757283472 63.82415523082875 30.637950974804625 H 0.0 **** 0.06
37144 H 21.439342925762247 64.7048695743492 30.18892740934109 H 0.0 **** 0.06
37145 H 21.22996022701247 64.1030731995813 31.850887780278356 H 0.0 **** 0.06
37146 C 302.6150830332576 150.27607541253428 98.6057323241534 C 0.0 **** -0.24
37147 H 302.83238594040347 150.4841828492289 97.55781004944168 H 0.0 **** 0.06
37148 H 303.36298539738647 149.588182916245 99.00143590244389 H 0.0 **** 0.06
37149 H 301.6264252819137 149.82618150912833 98.69009861606881 H 0.0 **** 0.06
37150 H 302.6409475781877 151.2061338840694 99.17377951930655 H 0.0 **** 0.06
37151 C 275.74333132013317 284.6798694531194 212.98159183107623 C 0.0 **** -0.24
37152 H 275.5181959633902 285.6475305760474 213.43172112285748 H 0.0 **** 0.06
37153 H 276.80015310552756 284.45355704658357 213.1179324049798 H 0.0 **** 0.06
37154 H 275.5127602330257 284.71235352485 211.91638663379354 H 0.0 **** 0.06
37155 H 275.14027772775046 283.90832342546406 213.46020904926297 H 0.0 **** 0.06
37156 C 109.08895648619668 151.1113822388146 169.4241040939806 C 0.0 **** -0.24
37157 H 109.33109952326376 150.20257073870778 168.8716923235187 H 0.0 **** 0.06
37158 H 109.45791573033353 151.02440910716365 170.4459177262583 H 0.0 **** 0.06
37159 H 108.00781493231804 151.2495567013807 169.43744982250007 H 0.0 **** 0.06
37160 H 109.55930144801306 151.96723989400863 168.9385573433484 H 0.0 **** 0.06
37161 C 246.45203891514814 81.64338855642944 252.3901047768116 C 0.0 **** -0.24
37162 H 246.75697210547725 81.0075266818757 251.5587818689012 H 0.0 **** 0.06
37163 H 245.36363348517682 81.70495540751926 252.41913059302635 H 0.0 **** 0.06
37164 H 246.86887045281804 82.64132938079189 252.25645999583475 H 0.0 **** 0.06
37165 H 246.81693821533895 81.21874123953492 253.32464503878106 H 0.0 **** 0.06
37166 C 51.9967211133914 220.86890721302723 186.64452658710564 C 0.0 **** -0.24
37167 H 50.94624893841757 220.60247581718073 186.75823176605513 H 0.0 **** 0.06
37168 H 52.19993088859968 221.78795253573105 187.1946155198894 H 0.0 **** 0.06
37169 H 52.22097016072348 221.02061000168968 185.5881190028802 H 0.0 **** 0.06
37170 H 52.61941367767122 220.06477747200034 187.03577545544084 H 0.0 **** 0.06
37171 C 55.21325546114724 98.96057555659146 285.0390393355886 C 0.0 **** -0.24
37172 H 56.10632360442116 99.57678272963398 285.1419050744181 H 0.0 **** 0.06
37173 H 54.38320145210412 99.57871520777516 284.6969033044088 H 0.0 **** 0.06
37174 H 54.96497702354566 98.51864753201156 286.0041614987417 H 0.0 **** 0.06
37175 H 55.40050155709329 98.1690735945968 284.3142973899754 H 0.0 **** 0.06
37176 C 300.982869965506 131.94689476767033 216.84788753733224 C 0.0 **** -0.24
37177 H 300.0329802732732 132.32655299566727 217.22479674947357 H 0.0 **** 0.06
37178 H 301.59925765645835 132.78032343651654 216.51012842101954 H 0.0 **** 0.06
37179 H 300.79691077662426 131.27085104359224 216.01313762592662 H 0.0 **** 0.06
37180 H 301.49989309810866 131.40973449481302 217.64328195105287 H 0.0 **** 0.06
37181 C 76.7397264901735 283.7977174551128 160.91904310749777 C 0.0 **** -0.24
37182 H 76.12653786510549 284.6950046382208 160.99569013021528 H 0.0 **** 0.06
37183 H 76.67044998136333 283.39638978051664 159.90809493282848 H 0.0 **** 0.06
37184 H 76.38421146011262 283.05332533687186 161.63146418202217 H 0.0 **** 0.06
37185 H 77.77677327054968 284.0465010295377 161.1409981743218 H 0.0 **** 0.06
37186 C 62.935149302714564 191.27400851349296 11.22291792801326 C 0.0 **** -0.24
37187 H 63.34806365018633 190.88995286552898 10.2897323333179 H 0.0 **** 0.06
37188 H 63.180924885958376 192.33198550448571 11.320567323035348 H 0.0 **** 0.06
37189 H 63.36104679738722 190.72281090224135 12.062374225501202 H 0.0 **** 0.06
37190 H 61.85254101304258 191.15036833599743 11.21949095449996 H 0.0 **** 0.06
37191 C 187.06023890388275 239.59281833868616 66.11202709363499 C 0.0 **** -0.24
37192 H 187.4090034332043 240.3762846933658 65.43878558655828 H 0.0 **** 0.06
37193 H 187.39624887440726 238.62331922363222 65.74520954725176 H 0.0 **** 0.06
37194 H 185.97095817306234 239.6082551835489 66.15551899801656 H 0.0 **** 0.06
37195 H 187.46595191198008 239.76509928225076 67.1094335233283 H 0.0 **** 0.06
37196 C 50.916590361486925 98.19446111031954 131.73124174689684 C 0.0 **** -0.24
37197 H 50.11334852240398 98.25044770386472 132.4646750369229 H 0.0 **** 0.06
37198 H 51.30592497700647 99.19509767547609 131.54230955380015 H 0.0 **** 0.06
37199 H 50.532800321536484 97.7721647163061 130.8023255436609 H 0.0 **** 0.06
37200 H 51.71591752628041 97.55990913145033 132.11619788360977 H 0.0 **** 0.06
37201 C 187.90293218800002 273.1393013142898 86.37995985616857 C 0.0 **** -0.24
37202 H 187.6964128052777 274.0642584776798 86.91791834723571 H 0.0 **** 0.06
37203 H 188.58544426330735 272.5230182287898 86.964273787878 H 0.0 **** 0.06
37204 H 188.35824011668302 273.3741910419781 85.41768709992999 H 0.0 **** 0.06
37205 H 186.9715479254902 272.5975304718153 86.21829336196419 H 0.0 **** 0.06
37206 C 192.51560057318477 202.72141074632736 210.82283588896485 C 0.0 **** -0.24
37207 H 192.59206677621142 202.59693501432167 209.7428025281024 H 0.0 **** 0.06
37208 H 193.2925988828568 202.13485128963623 211.3122988365887 H 0.0 **** 0.06
37209 H 191.53584919409445 202.38210820987166 211.15972812071834 H 0.0 **** 0.06
37210 H 192.64155935930455 203.7749297004783 211.07563532422512 H 0.0 **** 0.06
37211 C 278.37653175172693 87.79749025682037 123.63058591567628 C 0.0 **** -0.24
37212 H 277.7128561929172 86.9574278321704 123.42314139242131 H 0.0 **** 0.06
37213 H 279.11088061430775 87.8856710524903 122.82989481078098 H 0.0 **** 0.06
37214 H 278.88789893826237 87.62971465500425 124.57796139229146 H 0.0 **** 0.06
37215 H 277.79128500475247 88.71563468340216 123.69068925664038 H 0.0 **** 0.06
37216 C 201.8394148840411 211.05541868351673 74.70036002035891 C 0.0 **** -0.24
37217 H 201.43694895067836 211.85676771778486 74.08058647429283 H 0.0 **** 0.06
37218 H 202.5233831087532 211.47645368068606 75.43813732722009 H 0.0 **** 0.06
37219 H 202.37533737887202 210.34399032779928 74.07186887066317 H 0.0 **** 0.06
37220 H 201.02222776000684 210.54542048569425 75.21068383272353 H 0.0 **** 0.06
37221 C 127.1516653510613 7.255425960698091 200.01445515314555 C 0.0 **** -0.24
37222 H 127.40934920176471 8.29845156647663 199.83367638314354 H 0.0 **** 0.06
37223 H 126.07666346005789 7.120014936077993 199.89193518486803 H 0.0 **** 0.06
37224 H 127.43879781006697 6.980803933734322 201.02911176502283 H 0.0 **** 0.06
37225 H 127.68104485939378 6.62268026099477 199.30255940061795 H 0.0 **** 0.06
37226 C 74.0308677108539 286.73443769902497 17.63001706847247 C 0.0 **** -0.24
37227 H 74.14731255659805 286.427406748952 16.59067740150995 H 0.0 **** 0.06
37228 H 73.3503577899744 286.0502832979806 18.1363977066446 H 0.0 **** 0.06
37229 H 73.62441783828282 287.7459502895066 17.666116062220453 H 0.0 **** 0.06
37230 H 75.0012452717844 286.715089026859 18.124226902176062 H 0.0 **** 0.06
37231 C 223.70433543305347 91.43936099733264 48.250792625268616 C 0.0 **** -0.24
37232 H 224.53874420699907 90.76074121739543 48.42870424262634 H 0.0 **** 0.06
37233 H 223.91965412500167 92.05921129599773 47.37981568933745 H 0.0 **** 0.06
37234 H 223.5631140705293 92.0769182331286 49.12422359174758 H 0.0 **** 0.06
37235 H 222.79826483357434 90.86155381593233 48.07187847234263 H 0.0 **** 0.06
37236 C 207.60038536720737 254.01680626461777 302.88473731917276 C 0.0 **** -0.24
37237 H 207.8319569608638 253.69518072086132 303.90051975654205 H 0.0 **** 0.06
37238 H 206.52046109651013 254.00642835140926 302.7381657763037 H 0.0 **** 0.06
37239 H 208.0717161901847 253.33914157979484 302.1729275271745 H 0.0 **** 0.06
37240 H 207.97927260054047 255.0269314599702 302.72964088644017 H 0.0 **** 0.06
37241 C 260.6879200860128 97.8092404937766 112.83839192660048 C 0.0 **** -0.24
37242 H 260.59331912580603 97.70715270417935 113.92000419385735 H 0.0 **** 0.06
37243 H 261.31956576025954 97.00920878945038 112.45209364172283 H 0.0 **** 0.06
37244 H 261.13765583282645 98.77383162109342 112.60328330382313 H 0.0 **** 0.06
37245 H 259.7007407141832 97.74726087251562 112.38033105216036 H 0.0 **** 0.06
37246 C 89.89908866300513 206.94461782060807 9.07950262288108 C 0.0 **** -0.24
37247 H 90.6351345223438 206.92881740988457 8.27591430265511 H 0.0 **** 0.06
37248 H 88.89896329608942 207.03229362254342 8.65513774003648 H 0.0 **** 0.06
37249 H 90.09311276833304 207.79645873295047 9.732481231690997 H 0.0 **** 0.06
37250 H 89.97129242015549 206.02250414796015 9.655824876566044 H 0.0 **** 0.06
37251 C 50.28100532903298 217.82621994850285 301.4328552695927 C 0.0 **** -0.24
37252 H 50.92713761538528 218.68399017193855 301.2453301680673 H 0.0 **** 0.06
37253 H 50.37767144390594 217.5198842275398 302.4751222433382 H 0.0 **** 0.06
37254 H 50.57321688202887 217.00192364324357 300.7830504105376 H 0.0 **** 0.06
37255 H 49.24535185802904 218.1006838848063 301.2293391986712 H 0.0 **** 0.06
37256 C 231.84546593457006 280.5831871473739 90.99297133544295 C 0.0 **** -0.24
37257 H 232.20097504568648 281.36410682638007 91.66411667759516 H 0.0 **** 0.06
37258 H 232.61925470857892 280.3529608109791 90.26041545464605 H 0.0 **** 0.06
37259 H 230.94802675115278 280.92780774971584 90.47709352791293 H 0.0 **** 0.06
37260 H 231.61190471052 279.68743537533527 91.56855388205858 H 0.0 **** 0.06
37261 C 305.61414556875593 173.7664613642889 104.64703940023401 C 0.0 **** -0.24
37262 H 305.8983676994542 172.72698161051375 104.80856329520827 H 0.0 **** 0.06
37263 H 304.89068715770003 174.06654481645398 105.4054088360891 H 0.0 **** 0.06
37264 H 305.16767339876907 173.87093620726824 103.65808340557047 H 0.0 **** 0.06
37265 H 306.498180106529 174.39990547102167 104.71622644488482 H 0.0 **** 0.06
37266 C 11.657251680158453 111.96594155020361 58.954919485628864 C 0.0 **** -0.24
37267 H 12.670190393370603 112.06018075519273 59.3460262287378 H 0.0 **** 0.06
37268 H 11.368126379501717 110.9152622282783 58.946038569319626 H 0.0 **** 0.06
37269 H 11.62188998145676 112.36268048461955 57.939861791632694 H 0.0 **** 0.06
37270 H 10.96973939542049 112.52739849212938 59.58793790002659 H 0.0 **** 0.06
37271 C 267.24205304080476 153.14804183478583 56.849102123467645 C 0.0 **** -0.24
37272 H 267.78232213841704 152.8918758765579 55.937522913695034 H 0.0 **** 0.06
37273 H 266.64439423190043 152.29301020446724 57.16894617979946 H 0.0 **** 0.06
37274 H 266.5868638592771 153.99788850879713 56.65649080678503 H 0.0 **** 0.06
37275 H 267.95423650591255 153.40721945390305 57.632390080025374 H 0.0 **** 0.06
37276 C 195.54075163744483 28.06719352650353 297.0114282650088 C 0.0 **** -0.24
37277 H 196.58499804821804 27.920256055769215 296.7372291416009 H 0.0 **** 0.06
37278 H 195.4639721850342 28.20670649145046 298.0895842819125 H 0.0 **** 0.06
37279 H 194.9607258513642 27.193082184009825 296.7153830006813 H 0.0 **** 0.06
37280 H 195.15282080637434 28.94953034464814 296.502458954152 H 0.0 **** 0.06
37281 C 246.9233690124955 13.01872884455598 272.5836219680891 C 0.0 **** -0.24
37282 H 246.45461425151797 13.569957828053049 273.39824760461704 H 0.0 **** 0.06
37283 H 246.35771613676883 13.177304807405733 271.66513144501596 H 0.0 **** 0.06
37284 H 246.93473317096726 11.955077425277466 272.82421679308584 H 0.0 **** 0.06
37285 H 247.94498316596082 13.371628882792237 272.4471396292866 H 0.0 **** 0.06
37286 C 203.9135126190485 220.2094692779155 96.24025425094948 C 0.0 **** -0.24
37287 H 203.4387343433558 221.1163313615129 95.86367875115025 H 0.0 **** 0.06
37288 H 203.6705305702901 219.37342277743932 95.58336740428427 H 0.0 **** 0.06
37289 H 203.5497411273518 220.00064057761648 97.2459377112196 H 0.0 **** 0.06
37290 H 204.99389261194818 220.34966753178736 96.26605866864233 H 0.0 **** 0.06
37291 C 173.175333551383 8.36127337241632 251.46760972965657 C 0.0 **** -0.24
37292 H 172.6774365974702 9.331036274457148 251.49943570471297 H 0.0 **** 0.06
37293 H 172.4273653735205 7.568561996679989 251.49272210344668 H 0.0 **** 0.06
37294 H 173.83775626755784 8.264369967031897 252.32793828678956 H 0.0 **** 0.06
37295 H 173.75744172324244 8.282885285303962 250.5499933996499 H 0.0 **** 0.06
37296 C 96.72009051483701 259.5281410732012 286.3744403382192 C 0.0 **** -0.24
37297 H 96.06208681364717 259.70707014397004 285.52393468398475 H 0.0 **** 0.06
37298 H 97.47086206208246 258.78605011866244 286.1031813323951 H 0.0 **** 0.06
37299 H 96.13417145231773 259.1623223655853 287.2168498997233 H 0.0 **** 0.06
37300 H 97.21391086459403 260.4592269693734 286.6534490628332 H 0.0 **** 0.06
37301 C 251.07259451119137 20.904655511632456 210.0150361159316 C 0.0 **** -0.24
37302 H 251.7172397882471 20.64875715104003 209.17503621163223 H 0.0 **** 0.06
37303 H 250.02999333527825 20.76941652183882 209.72688762188955 H 0.0 **** 0.06
37304 H 251.2394096434607 21.944110106427047 210.2966976234257 H 0.0 **** 0.06
37305 H 251.30342744799844 20.25695839566845 210.86080142099667 H 0.0 **** 0.06
37306 C 217.8303592073451 153.05573795640112 40.9697888628898 C 0.0 **** -0.24
37307 H 217.21774692226714 152.75054166489122 40.1213504369627 H 0.0 **** 0.06
37308 H 218.0375571789144 154.12420574705925 40.90178198313231 H 0.0 **** 0.06
37309 H 218.76905855233622 152.50127252558838 40.957259753452746 H 0.0 **** 0.06
37310 H 217.29693090266824 152.84670828268486 41.89632822145285 H 0.0 **** 0.06
37311 C 187.1149247842353 92.66829932129451 125.20563492775455 C 0.0 **** -0.24
37312 H 188.17130275325326 92.93867045009307 125.22405760276393 H 0.0 **** 0.06
37313 H 186.89866077545497 91.99264868257629 126.03315740037345 H 0.0 **** 0.06
37314 H 186.88284310288282 92.17477799477314 124.26142406822729 H 0.0 **** 0.06
37315 H 186.5089363175611 93.56948760549744 125.30284093480626 H 0.0 **** 0.06
37316 C 231.2435698960876 33.36874291513095 85.2405724039312 C 0.0 **** -0.24
37317 H 231.84598900678745 34.27503915718296 85.18082555868787 H 0.0 **** 0.06
37318 H 231.04891121481313 32.99623849648037 84.23510196494763 H 0.0 **** 0.06
37319 H 230.2979580966535 33.59441259813127 85.73463603734513 H 0.0 **** 0.06
37320 H 231.7813042337367 32.61259453142509 85.81162822345692 H 0.0 **** 0.06
37321 C 102.05970490861944 307.9649466181864 301.80087118966765 C 0.0 **** -0.24
37322 H 102.02589698612556 307.56453351076283 302.81389671544855 H 0.0 **** 0.06
37323 H 101.51691214843336 307.29928827452636 301.12898999208824 H 0.0 **** 0.06
37324 H 103.09758649995501 308.04240342319474 301.475422883139 H 0.0 **** 0.06
37325 H 101.59837030817175 308.9525735514027 301.7853219501556 H 0.0 **** 0.06
37326 C 108.14884146773721 311.61723298572963 233.57980913601642 C 0.0 **** -0.24
37327 H 107.17545475280036 311.421439308976 233.12851267525468 H 0.0 **** 0.06
37328 H 108.70241937129478 312.3209783252462 232.95814576082623 H 0.0 **** 0.06
37329 H 108.70599598313842 310.6836130148381 233.65781520043723 H 0.0 **** 0.06
37330 H 108.00887589756502 312.04141960221256 234.57379288886105 H 0.0 **** 0.06
37331 C 163.48042615585507 45.77526750023941 18.896674816495462 C 0.0 **** -0.24
37332 H 162.8392173072857 44.97067347491708 18.53535636798196 H 0.0 **** 0.06
37333 H 163.9189954578875 45.486754657386655 19.852006516686885 H 0.0 **** 0.06
37334 H 162.88707419644868 46.68067449896262 19.027529593616777 H 0.0 **** 0.06
37335 H 164.27360497658026 45.961440180830095 18.17267658398164 H 0.0 **** 0.06
37336 C 52.5735294713611 119.6964422787832 296.711942507704 C 0.0 **** -0.24
37337 H 51.99309520951732 120.59813119087701 296.9058072049803 H 0.0 **** 0.06
37338 H 53.41044365366096 119.64716086899955 297.40876554511715 H 0.0 **** 0.06
37339 H 52.95145120159833 119.72083294323323 295.69069493565024 H 0.0 **** 0.06
37340 H 51.93850362433909 118.82104403434224 296.8444130055462 H 0.0 **** 0.06
37341 C 179.13500904364918 105.78332798556835 26.857251918110222 C 0.0 **** -0.24
37342 H 179.19951497135042 105.71983079494913 25.77114352537771 H 0.0 **** 0.06
37343 H 178.506629860999 104.97482272417051 27.23098202868951 H 0.0 **** 0.06
37344 H 178.7006003526247 106.74219227700084 27.140369756742786 H 0.0 **** 0.06
37345 H 180.13393332921385 105.69599898146825 27.285904775003416 H 0.0 **** 0.06
37346 C 140.77797965232722 254.7851953984673 193.50157168867185 C 0.0 **** -0.24
37347 H 141.4275632188161 255.55295046095614 193.9232121860117 H 0.0 **** 0.06
37348 H 141.05875451274622 253.81182755482865 193.90478859319677 H 0.0 **** 0.06
37349 H 140.88461472803863 254.7746511387669 192.4177935195118 H 0.0 **** 0.06
37350 H 139.74275298990645 255.00214925190397 193.76299113770847 H 0.0 **** 0.06
37351 C 283.7966077283562 2.3105526946755504 193.75620550414698 C 0.0 **** -0.24
37352 H 283.49900546496485 1.5780336733163267 193.0055397139448 H 0.0 **** 0.06
37353 H 283.11935869034335 2.2525042855498896 194.60836128398608 H 0.0 **** 0.06
37354 H 283.7524871062227 3.310452531513988 193.324080477532 H 0.0 **** 0.06
37355 H 284.8139051229681 2.1013851565393225 194.08435683182745 H 0.0 **** 0.06
37356 C 293.0119823850127 162.36701530895374 216.13631813594924 C 0.0 **** -0.24
37357 H 293.042587734981 161.28719996969352 216.28127845780512 H 0.0 **** 0.06
37358 H 292.03756601708807 162.7462062921109 216.44542215303358 H 0.0 **** 0.06
37359 H 293.1750211334046 162.59725632288394 215.0835965247549 H 0.0 **** 0.06
37360 H 293.79242464304014 162.83534976275598 216.73580797732703 H 0.0 **** 0.06
37361 C 8.511985865974125 111.84045374108436 99.66312900266931 C 0.0 **** -0.24
37362 H 8.826883687456899 111.34688600143932 98.74354833753927 H 0.0 **** 0.06
37363 H 7.793055269292481 111.21016565915681 100.18587375649469 H 0.0 **** 0.06
37364 H 8.049247369980762 112.7973668301515 99.42189514560721 H 0.0 **** 0.06
37365 H 9.38005810461469 112.00788558302997 100.30146004610182 H 0.0 **** 0.06
37366 C 246.96591404176212 299.3261142819927 145.7258127889284 C 0.0 **** -0.24
37367 H 247.09986967502988 300.29800862296526 145.25080791688214 H 0.0 **** 0.06
37368 H 246.52972378233864 298.62994893843427 145.00939166818583 H 0.0 **** 0.06
37369 H 246.30098169009358 299.4294228188935 146.58302785045103 H 0.0 **** 0.06
37370 H 247.93195595862576 298.9477088037117 146.05819758615803 H 0.0 **** 0.06
37371 C 255.08865787917725 140.34068443916118 114.84009861649383 C 0.0 **** -0.24
37372 H 255.92579788086167 139.66583310368395 114.6614687122825 H 0.0 **** 0.06
37373 H 254.47411249675662 139.94951547187665 115.6515985653009 H 0.0 **** 0.06
37374 H 254.48770499956638 140.41984032781818 113.93419556893559 H 0.0 **** 0.06
37375 H 255.46707919681018 141.3252542801539 115.11227664283103 H 0.0 **** 0.06
37376 C 122.3813158779912 238.07927338628198 178.0325051313016 C 0.0 **** -0.24
37377 H 121.37057548885613 238.34428971812014 178.34200885891994 H 0.0 **** 0.06
37378 H 122.65497772813325 238.6595933946871 177.15113617834646 H 0.0 **** 0.06
37379 H 122.42128254722306 237.01664900747056 177.79556117278054 H 0.0 **** 0.06
37380 H 123.07696303978645 238.29712008812592 178.8429088522185 H 0.0 **** 0.06
37381 C 63.804457948272585 39.98869174250129 266.8612011390147 C 0.0 **** -0.24
37382 H 63.81579939223252 38.89884452612901 266.84976583345843 H 0.0 **** 0.06
37383 H 63.220922463784575 40.33626597643101 267.71407149430075 H 0.0 **** 0.06
37384 H 63.356354097356615 40.35712912258816 265.938461096969 H 0.0 **** 0.06
37385 H 64.82604125573906 40.36143842062333 266.9442843261121 H 0.0 **** 0.06
37386 C 218.68535484923694 28.78940128769713 298.3306137364913 C 0.0 **** -0.24
37387 H 218.37559158596474 27.906644955211448 298.8902389051803 H 0.0 **** 0.06
37388 H 218.0877694852952 28.872191084149136 297.4223065547963 H 0.0 **** 0.06
37389 H 219.73947205627934 28.70093358377278 298.066370037746 H 0.0 **** 0.06
37390 H 218.53847400610306 29.67811185365059 298.94449393522376 H 0.0 **** 0.06
37391 C 212.35547215904856 310.3981489926158 135.77837143756565 C 0.0 **** -0.24
37392 H 213.2027647605564 310.2860945969678 135.10111711721473 H 0.0 **** 0.06
37393 H 212.70554683351418 310.3503597132709 136.8094530329796 H 0.0 **** 0.06
37394 H 211.6393625690717 309.59604587708355 135.59947203141718 H 0.0 **** 0.06
37395 H 211.8743329434164 311.36004186810146 135.60099753411345 H 0.0 **** 0.06
37396 C 115.97158416803461 131.29563161779873 161.20376682431902 C 0.0 **** -0.24
37397 H 115.53309999129692 132.13835413173345 160.66923081847716 H 0.0 **** 0.06
37398 H 115.20928346511596 130.53367104709645 161.3676084517918 H 0.0 **** 0.06
37399 H 116.35825969070143 131.63599767273158 162.1642293887371 H 0.0 **** 0.06
37400 H 116.78523623291312 130.87472362338966 160.61206408398448 H 0.0 **** 0.06
37401 C 274.7562670365958 69.61518154232516 116.49148443743346 C 0.0 **** -0.24
37402 H 273.9717920914029 68.87069483738762 116.63487190557015 H 0.0 **** 0.06
37403 H 274.3095875875056 70.60737562950214 116.43151185479994 H 0.0 **** 0.06
37404 H 275.2943609175941 69.40097142915039 115.56803419351803 H 0.0 **** 0.06
37405 H 275.4493148766107 69.5776654941634 117.33244138713704 H 0.0 **** 0.06
37406 C 137.77085306383955 70.48189951634757 178.13033024288194 C 0.0 **** -0.24
37407 H 138.67750006810226 69.99168697601655 178.4851121833567 H 0.0 **** 0.06
37408 H 137.2943350962051 71.00863678504254 178.9574214279861 H 0.0 **** 0.06
37409 H 137.08540340760453 69.73281109702577 177.7326762937587 H 0.0 **** 0.06
37410 H 138.0259824451146 71.19313942890815 177.34462410419854 H 0.0 **** 0.06
37411 C 64.0627289032816 188.6896677391756 205.48847397235926 C 0.0 **** -0.24
37412 H 64.37369656394327 188.944925007452 206.5014365532433 H 0.0 **** 0.06
37413 H 64.37211557985341 187.66895706167116 205.25990460687376 H 0.0 **** 0.06
37414 H 64.52576096611637 189.37754513762894 204.78199231154497 H 0.0 **** 0.06
37415 H 62.977806627395665 188.7657808337097 205.4117875661595 H 0.0 **** 0.06
37416 C 29.756046490548357 86.45687830261363 5.6282254755434735 C 0.0 **** -0.24
37417 H 30.189944516617373 85.47108228565824 5.794099112677486 H 0.0 **** 0.06
37418 H 28.808894293129413 86.53216067570486 6.163432570190778 H 0.0 **** 0.06
37419 H 29.58438663584934 86.60346105773112 4.562135546212261 H 0.0 **** 0.06
37420 H 30.441395448832793 87.22143429686773 5.993882810083619 H 0.0 **** 0.06
37421 C 198.57503094450408 198.3739440098973 243.28371069182555 C 0.0 **** -0.24
37422 H 199.21808835122346 198.22919328986183 244.15261330823307 H 0.0 **** 0.06
37423 H 199.17017218254597 198.2918459632565 242.37431244753319 H 0.0 **** 0.06
37424 H 198.11679934945562 199.36148003099163 243.33153076632743 H 0.0 **** 0.06
37425 H 197.79592094067306 197.6110833831761 243.27826825629126 H 0.0 **** 0.06
37426 C 312.9674183365146 171.0916309597642 90.87050573559662 C 0.0 **** -0.24
37427 H 313.98643300346896 171.33751396101417 90.5719860418688 H 0.0 **** 0.06
37428 H 312.6558027689748 171.7554405881824 91.67737863037604 H 0.0 **** 0.06
37429 H 312.9292645871606 170.0582637204505 91.21375314731506 H 0.0 **** 0.06
37430 H 312.29971786508827 171.21642064217536 90.018296862401 H 0.0 **** 0.06
37431 C 223.02244442464 300.2831614553682 311.4978960110138 C 0.0 **** -0.24
37432 H 223.945608759882 300.25566919511033 310.91863688279346 H 0.0 **** 0.06
37433 H 222.90847342314754 299.34486896450716 312.0424115483082 H 0.0 **** 0.06
37434 H 222.17566315583554 300.4183019115253 310.8249436426099 H 0.0 **** 0.06
37435 H 223.06249684536675 301.1115122338707 312.2039591336505 H 0.0 **** 0.06
37436 C 171.19468489973173 212.13053510094392 307.00636560120694 C 0.0 **** -0.24
37437 H 172.0293265953752 212.83070741533177 307.04435666515803 H 0.0 **** 0.06
37438 H 170.33100209906212 212.5671614818009 307.50862029424263 H 0.0 **** 0.06
37439 H 171.47568066192002 211.20318668115016 307.5066181821701 H 0.0 **** 0.06
37440 H 170.94279389011047 211.9209425040568 305.96685503757436 H 0.0 **** 0.06
37441 C 290.9347274503791 257.5263462252223 250.85569157144027 C 0.0 **** -0.24
37442 H 290.93956404255823 258.3645062785867 251.5520554701034 H 0.0 **** 0.06
37443 H 290.195860858889 257.70742571630774 250.07408186404416 H 0.0 **** 0.06
37444 H 290.68082214260403 256.61146357144094 251.3915900478046 H 0.0 **** 0.06
37445 H 291.92219476939846 257.4214645257732 250.40574993644964 H 0.0 **** 0.06
37446 C 262.27226657754125 36.03458659184275 15.638716030939989 C 0.0 **** -0.24
37447 H 263.1964318827967 36.612726327111716 15.607808259751948 H 0.0 **** 0.06
37448 H 262.47829547668255 35.041368757851615 16.036183981262894 H 0.0 **** 0.06
37449 H 261.86557553788725 35.94625674881706 14.630653734833018 H 0.0 **** 0.06
37450 H 261.5497114545116 36.54034941642868 16.278619465874698 H 0.0 **** 0.06
37451 C 70.84119114438258 131.4512599568576 178.08380386253873 C 0.0 **** -0.24
37452 H 70.73712998187636 132.5344479027509 178.02911845474426 H 0.0 **** 0.06
37453 H 71.89350109199219 131.19343440143444 178.2094068634816 H 0.0 **** 0.06
37454 H 70.46402466415537 131.00314614109072 177.1653629022902 H 0.0 **** 0.06
37455 H 70.2710116082994 131.07386507967942 178.9333677262959 H 0.0 **** 0.06
37456 C 90.80456359963117 104.17179526088415 182.9818349790964 C 0.0 **** -0.24
37457 H 89.78144740960633 104.30373748062232 182.62951429674223 H 0.0 **** 0.06
37458 H 91.48962044151784 104.22432996939801 182.13583463851018 H 0.0 **** 0.06
37459 H 90.89834588390144 103.19972006877356 183.46630794583308 H 0.0 **** 0.06
37460 H 91.04668127430165 104.95888130365597 183.69540973991587 H 0.0 **** 0.06
37461 C 222.64211296372036 284.9923141642478 207.57222936076752 C 0.0 **** -0.24
37462 H 221.59025965863265 285.21840719904844 207.74726339845006 H 0.0 **** 0.06
37463 H 223.08437211174314 285.7768103001325 206.95851932601659 H 0.0 **** 0.06
37464 H 222.72790903943687 284.0350816911177 207.0586932155553 H 0.0 **** 0.06
37465 H 223.16544785249212 284.9405383121444 208.52764875090762 H 0.0 **** 0.06
37466 C 103.08018477754703 57.03846974140188 114.8554404356986 C 0.0 **** -0.24
37467 H 102.77643663232763 56.50435740427983 113.95476600590604 H 0.0 **** 0.06
37468 H 102.19970387403919 57.263413772250885 115.45725927153626 H 0.0 **** 0.06
37469 H 103.57823875840651 57.966263585410644 114.57676112539502 H 0.0 **** 0.06
37470 H 103.7653717738419 56.417042210928 115.43189247510335 H 0.0 **** 0.06
37471 C 270.31234487859314 216.80893237095276 81.057498878491 C 0.0 **** -0.24
37472 H 270.5157188907476 216.793312726323 79.98694650426825 H 0.0 **** 0.06
37473 H 270.8496269926444 215.99383610511262 81.54121506849339 H 0.0 **** 0.06
37474 H 269.2423420343347 216.6904620364637 81.22613469855943 H 0.0 **** 0.06
37475 H 270.64215189376597 217.76042096458994 81.47500114226145 H 0.0 **** 0.06
37476 C 238.70445242971294 304.16548993693846 218.3781583835919 C 0.0 **** -0.24
37477 H 239.07467169369758 305.09233626279286 218.81553228726455 H 0.0 **** 0.06
37478 H 237.6861280300344 303.9816236004866 218.72408749177583 H 0.0 **** 0.06
37479 H 239.3464935222137 303.33847770331744 218.68197963464763 H 0.0 **** 0.06
37480 H 238.709596933915 304.2486225370808 217.29219390604277 H 0.0 **** 0.06
37481 C 227.4751037969455 234.96836193201023 24.891389093452574 C 0.0 **** -0.24
37482 H 226.44666378900155 234.99496976386826 24.53173714825843 H 0.0 **** 0.06
37483 H 228.05720288751252 235.73730151979612 24.3830743181517 H 0.0 **** 0.06
37484 H 227.90565055851033 233.98889438830287 24.685194614858318 H 0.0 **** 0.06
37485 H 227.48793479403793 235.15337851625134 25.965682619827618 H 0.0 **** 0.06
37486 C 292.8437037123945 113.73352962085431 172.68566483575512 C 0.0 **** -0.24
37487 H 292.2282015213557 113.15114864290544 172.0003767232323 H 0.0 **** 0.06
37488 H 293.4281594372105 113.05838141185919 173.31185470949782 H 0.0 **** 0.06
37489 H 292.20295351344146 114.34985579385088 173.31511584601725 H 0.0 **** 0.06
37490 H 293.51600515304466 114.37403739093367 172.1141887447771 H 0.0 **** 0.06
37491 C 295.3558937226944 248.62902700631582 85.97429234643104 C 0.0 **** -0.24
37492 H 296.24579904190307 248.7991923717829 85.36830916086817 H 0.0 **** 0.06
37493 H 295.28179838776634 247.56986410660198 86.22141819379615 H 0.0 **** 0.06
37494 H 294.4715364641755 248.93451310123982 85.41365089026178 H 0.0 **** 0.06
37495 H 295.4237127438777 249.2133534617795 86.89159901324814 H 0.0 **** 0.06
37496 C 251.06420522845832 118.22932091526923 53.32070077099354 C 0.0 **** -0.24
37497 H 250.59367791580212 119.18975705483291 53.11053697926161 H 0.0 **** 0.06
37498 H 252.14780198646912 118.34545339697627 53.306325040065985 H 0.0 **** 0.06
37499 H 250.7661670162106 117.50595914868714 52.561417338522006 H 0.0 **** 0.06
37500 H 250.749001120195 117.87706078185664 54.30227120308945 H 0.0 **** 0.06
@<TRIPOS>BOND
1 1 2 28
2 1 3 28
3 1 4 28
4 1 5 28
5 6 7 28
6 6 8 28
7 6 9 28
8 6 10 28
9 11 12 28
10 11 13 28
11 11 14 28
12 11 15 28
13 16 17 28
14 16 18 28
15 16 19 28
16 16 20 28
17 21 22 28
18 21 23 28
19 21 24 28
20 21 25 28
21 26 27 28
22 26 28 28
23 26 29 28
24 26 30 28
25 31 32 28
26 31 33 28
27 31 34 28
28 31 35 28
29 36 37 28
30 36 38 28
31 36 39 28
32 36 40 28
33 41 42 28
34 41 43 28
35 41 44 28
36 41 45 28
37 46 47 28
38 46 48 28
39 46 49 28
40 46 50 28
41 51 52 28
42 51 53 28
43 51 54 28
44 51 55 28
45 56 57 28
46 56 58 28
47 56 59 28
48 56 60 28
49 61 62 28
50 61 63 28
51 61 64 28
52 61 65 28
53 66 67 28
54 66 68 28
55 66 69 28
56 66 70 28
57 71 72 28
58 71 73 28
59 71 74 28
60 71 75 28
61 76 77 28
62 76 78 28
63 76 79 28
64 76 80 28
65 81 82 28
66 81 83 28
67 81 84 28
68 81 85 28
69 86 87 28
70 86 88 28
71 86 89 28
72 86 90 28
73 91 92 28
74 91 93 28
75 91 94 28
76 91 95 28
77 96 97 28
78 96 98 28
79 96 99 28
80 96 100 28
81 101 102 28
82 101 103 28
83 101 104 28
84 101 105 28
85 106 107 28
86 106 108 28
87 106 109 28
88 106 110 28
89 111 112 28
90 111 113 28
91 111 114 28
92 111 115 28
93 116 117 28
94 116 118 28
95 116 119 28
96 116 120 28
97 121 122 28
98 121 123 28
99 121 124 28
100 121 125 28
101 126 127 28
102 126 128 28
103 126 129 28
104 126 130 28
105 131 132 28
106 131 133 28
107 131 134 28
108 131 135 28
109 136 137 28
110 136 138 28
111 136 139 28
112 136 140 28
113 141 142 28
114 141 143 28
115 141 144 28
116 141 145 28
117 146 147 28
118 146 148 28
119 146 149 28
120 146 150 28
121 151 152 28
122 151 153 28
123 151 154 28
124 151 155 28
125 156 157 28
126 156 158 28
127 156 159 28
128 156 160 28
129 161 162 28
130 161 163 28
131 161 164 28
132 161 165 28
133 166 167 28
134 166 168 28
135 166 169 28
136 166 170 28
137 171 172 28
138 171 173 28
139 171 174 28
140 171 175 28
141 176 177 28
142 176 178 28
143 176 179 28
144 176 180 28
145 181 182 28
146 181 183 28
147 181 184 28
148 181 185 28
149 186 187 28
150 186 188 28
151 186 189 28
152 186 190 28
153 191 192 28
154 191 193 28
155 191 194 28
156 191 195 28
157 196 197 28
158 196 198 28
159 196 199 28
160 196 200 28
161 201 202 28
162 201 203 28
163 201 204 28
164 201 205 28
165 206 207 28
166 206 208 28
167 206 209 28
168 206 210 28
169 211 212 28
170 211 213 28
171 211 214 28
172 211 215 28
173 216 217 28
174 216 218 28
175 216 219 28
176 216 220 28
177 221 222 28
178 221 223 28
179 221 224 28
180 221 225 28
181 226 227 28
182 226 228 28
183 226 229 28
184 226 230 28
185 231 232 28
186 231 233 28
187 231 234 28
188 231 235 28
189 236 237 28
190 236 238 28
191 236 239 28
192 236 240 28
193 241 242 28
194 241 243 28
195 241 244 28
196 241 245 28
197 246 247 28
198 246 248 28
199 246 249 28
200 246 250 28
201 251 252 28
202 251 253 28
203 251 254 28
204 251 255 28
205 256 257 28
206 256 258 28
207 256 259 28
208 256 260 28
209 261 262 28
210 261 263 28
211 261 264 28
212 261 265 28
213 266 267 28
214 266 268 28
215 266 269 28
216 266 270 28
217 271 272 28
218 271 273 28
219 271 274 28
220 271 275 28
221 276 277 28
222 276 278 28
223 276 279 28
224 276 280 28
225 281 282 28
226 281 283 28
227 281 284 28
228 281 285 28
229 286 287 28
230 286 288 28
231 286 289 28
232 286 290 28
233 291 292 28
234 291 293 28
235 291 294 28
236 291 295 28
237 296 297 28
238 296 298 28
239 296 299 28
240 296 300 28
241 301 302 28
242 301 303 28
243 301 304 28
244 301 305 28
245 306 307 28
246 306 308 28
247 306 309 28
248 306 310 28
249 311 312 28
250 311 313 28
251 311 314 28
252 311 315 28
253 316 317 28
254 316 318 28
255 316 319 28
256 316 320 28
257 321 322 28
258 321 323 28
259 321 324 28
260 321 325 28
261 326 327 28
262 326 328 28
263 326 329 28
264 326 330 28
265 331 332 28
266 331 333 28
267 331 334 28
268 331 335 28
269 336 337 28
270 336 338 28
271 336 339 28
272 336 340 28
273 341 342 28
274 341 343 28
275 341 344 28
276 341 345 28
277 346 347 28
278 346 348 28
279 346 349 28
280 346 350 28
281 351 352 28
282 351 353 28
283 351 354 28
284 351 355 28
285 356 357 28
286 356 358 28
287 356 359 28
288 356 360 28
289 361 362 28
290 361 363 28
291 361 364 28
292 361 365 28
293 366 367 28
294 366 368 28
295 366 369 28
296 366 370 28
297 371 372 28
298 371 373 28
299 371 374 28
300 371 375 28
301 376 377 28
302 376 378 28
303 376 379 28
304 376 380 28
305 381 382 28
306 381 383 28
307 381 384 28
308 381 385 28
309 386 387 28
310 386 388 28
311 386 389 28
312 386 390 28
313 391 392 28
314 391 393 28
315 391 394 28
316 391 395 28
317 396 397 28
318 396 398 28
319 396 399 28
320 396 400 28
321 401 402 28
322 401 403 28
323 401 404 28
324 401 405 28
325 406 407 28
326 406 408 28
327 406 409 28
328 406 410 28
329 411 412 28
330 411 413 28
331 411 414 28
332 411 415 28
333 416 417 28
334 416 418 28
335 416 419 28
336 416 420 28
337 421 422 28
338 421 423 28
339 421 424 28
340 421 425 28
341 426 427 28
342 426 428 28
343 426 429 28
344 426 430 28
345 431 432 28
346 431 433 28
347 431 434 28
348 431 435 28
349 436 437 28
350 436 438 28
351 436 439 28
352 436 440 28
353 441 442 28
354 441 443 28
355 441 444 28
356 441 445 28
357 446 447 28
358 446 448 28
359 446 449 28
360 446 450 28
361 451 452 28
362 451 453 28
363 451 454 28
364 451 455 28
365 456 457 28
366 456 458 28
367 456 459 28
368 456 460 28
369 461 462 28
370 461 463 28
371 461 464 28
372 461 465 28
373 466 467 28
374 466 468 28
375 466 469 28
376 466 470 28
377 471 472 28
378 471 473 28
379 471 474 28
380 471 475 28
381 476 477 28
382 476 478 28
383 476 479 28
384 476 480 28
385 481 482 28
386 481 483 28
387 481 484 28
388 481 485 28
389 486 487 28
390 486 488 28
391 486 489 28
392 486 490 28
393 491 492 28
394 491 493 28
395 491 494 28
396 491 495 28
397 496 497 28
398 496 498 28
399 496 499 28
400 496 500 28
401 501 502 28
402 501 503 28
403 501 504 28
404 501 505 28
405 506 507 28
406 506 508 28
407 506 509 28
408 506 510 28
409 511 512 28
410 511 513 28
411 511 514 28
412 511 515 28
413 516 517 28
414 516 518 28
415 516 519 28
416 516 520 28
417 521 522 28
418 521 523 28
419 521 524 28
420 521 525 28
421 526 527 28
422 526 528 28
423 526 529 28
424 526 530 28
425 531 532 28
426 531 533 28
427 531 534 28
428 531 535 28
429 536 537 28
430 536 538 28
431 536 539 28
432 536 540 28
433 541 542 28
434 541 543 28
435 541 544 28
436 541 545 28
437 546 547 28
438 546 548 28
439 546 549 28
440 546 550 28
441 551 552 28
442 551 553 28
443 551 554 28
444 551 555 28
445 556 557 28
446 556 558 28
447 556 559 28
448 556 560 28
449 561 562 28
450 561 563 28
451 561 564 28
452 561 565 28
453 566 567 28
454 566 568 28
455 566 569 28
456 566 570 28
457 571 572 28
458 571 573 28
459 571 574 28
460 571 575 28
461 576 577 28
462 576 578 28
463 576 579 28
464 576 580 28
465 581 582 28
466 581 583 28
467 581 584 28
468 581 585 28
469 586 587 28
470 586 588 28
471 586 589 28
472 586 590 28
473 591 592 28
474 591 593 28
475 591 594 28
476 591 595 28
477 596 597 28
478 596 598 28
479 596 599 28
480 596 600 28
481 601 602 28
482 601 603 28
483 601 604 28
484 601 605 28
485 606 607 28
486 606 608 28
487 606 609 28
488 606 610 28
489 611 612 28
490 611 613 28
491 611 614 28
492 611 615 28
493 616 617 28
494 616 618 28
495 616 619 28
496 616 620 28
497 621 622 28
498 621 623 28
499 621 624 28
500 621 625 28
501 626 627 28
502 626 628 28
503 626 629 28
504 626 630 28
505 631 632 28
506 631 633 28
507 631 634 28
508 631 635 28
509 636 637 28
510 636 638 28
511 636 639 28
512 636 640 28
513 641 642 28
514 641 643 28
515 641 644 28
516 641 645 28
517 646 647 28
518 646 648 28
519 646 649 28
520 646 650 28
521 651 652 28
522 651 653 28
523 651 654 28
524 651 655 28
525 656 657 28
526 656 658 28
527 656 659 28
528 656 660 28
529 661 662 28
530 661 663 28
531 661 664 28
532 661 665 28
533 666 667 28
534 666 668 28
535 666 669 28
536 666 670 28
537 671 672 28
538 671 673 28
539 671 674 28
540 671 675 28
541 676 677 28
542 676 678 28
543 676 679 28
544 676 680 28
545 681 682 28
546 681 683 28
547 681 684 28
548 681 685 28
549 686 687 28
550 686 688 28
551 686 689 28
552 686 690 28
553 691 692 28
554 691 693 28
555 691 694 28
556 691 695 28
557 696 697 28
558 696 698 28
559 696 699 28
560 696 700 28
561 701 702 28
562 701 703 28
563 701 704 28
564 701 705 28
565 706 707 28
566 706 708 28
567 706 709 28
568 706 710 28
569 711 712 28
570 711 713 28
571 711 714 28
572 711 715 28
573 716 717 28
574 716 718 28
575 716 719 28
576 716 720 28
577 721 722 28
578 721 723 28
579 721 724 28
580 721 725 28
581 726 727 28
582 726 728 28
583 726 729 28
584 726 730 28
585 731 732 28
586 731 733 28
587 731 734 28
588 731 735 28
589 736 737 28
590 736 738 28
591 736 739 28
592 736 740 28
593 741 742 28
594 741 743 28
595 741 744 28
596 741 745 28
597 746 747 28
598 746 748 28
599 746 749 28
600 746 750 28
601 751 752 28
602 751 753 28
603 751 754 28
604 751 755 28
605 756 757 28
606 756 758 28
607 756 759 28
608 756 760 28
609 761 762 28
610 761 763 28
611 761 764 28
612 761 765 28
613 766 767 28
614 766 768 28
615 766 769 28
616 766 770 28
617 771 772 28
618 771 773 28
619 771 774 28
620 771 775 28
621 776 777 28
622 776 778 28
623 776 779 28
624 776 780 28
625 781 782 28
626 781 783 28
627 781 784 28
628 781 785 28
629 786 787 28
630 786 788 28
631 786 789 28
632 786 790 28
633 791 792 28
634 791 793 28
635 791 794 28
636 791 795 28
637 796 797 28
638 796 798 28
639 796 799 28
640 796 800 28
641 801 802 28
642 801 803 28
643 801 804 28
644 801 805 28
645 806 807 28
646 806 808 28
647 806 809 28
648 806 810 28
649 811 812 28
650 811 813 28
651 811 814 28
652 811 815 28
653 816 817 28
654 816 818 28
655 816 819 28
656 816 820 28
657 821 822 28
658 821 823 28
659 821 824 28
660 821 825 28
661 826 827 28
662 826 828 28
663 826 829 28
664 826 830 28
665 831 832 28
666 831 833 28
667 831 834 28
668 831 835 28
669 836 837 28
670 836 838 28
671 836 839 28
672 836 840 28
673 841 842 28
674 841 843 28
675 841 844 28
676 841 845 28
677 846 847 28
678 846 848 28
679 846 849 28
680 846 850 28
681 851 852 28
682 851 853 28
683 851 854 28
684 851 855 28
685 856 857 28
686 856 858 28
687 856 859 28
688 856 860 28
689 861 862 28
690 861 863 28
691 861 864 28
692 861 865 28
693 866 867 28
694 866 868 28
695 866 869 28
696 866 870 28
697 871 872 28
698 871 873 28
699 871 874 28
700 871 875 28
701 876 877 28
702 876 878 28
703 876 879 28
704 876 880 28
705 881 882 28
706 881 883 28
707 881 884 28
708 881 885 28
709 886 887 28
710 886 888 28
711 886 889 28
712 886 890 28
713 891 892 28
714 891 893 28
715 891 894 28
716 891 895 28
717 896 897 28
718 896 898 28
719 896 899 28
720 896 900 28
721 901 902 28
722 901 903 28
723 901 904 28
724 901 905 28
725 906 907 28
726 906 908 28
727 906 909 28
728 906 910 28
729 911 912 28
730 911 913 28
731 911 914 28
732 911 915 28
733 916 917 28
734 916 918 28
735 916 919 28
736 916 920 28
737 921 922 28
738 921 923 28
739 921 924 28
740 921 925 28
741 926 927 28
742 926 928 28
743 926 929 28
744 926 930 28
745 931 932 28
746 931 933 28
747 931 934 28
748 931 935 28
749 936 937 28
750 936 938 28
751 936 939 28
752 936 940 28
753 941 942 28
754 941 943 28
755 941 944 28
756 941 945 28
757 946 947 28
758 946 948 28
759 946 949 28
760 946 950 28
761 951 952 28
762 951 953 28
763 951 954 28
764 951 955 28
765 956 957 28
766 956 958 28
767 956 959 28
768 956 960 28
769 961 962 28
770 961 963 28
771 961 964 28
772 961 965 28
773 966 967 28
774 966 968 28
775 966 969 28
776 966 970 28
777 971 972 28
778 971 973 28
779 971 974 28
780 971 975 28
781 976 977 28
782 976 978 28
783 976 979 28
784 976 980 28
785 981 982 28
786 981 983 28
787 981 984 28
788 981 985 28
789 986 987 28
790 986 988 28
791 986 989 28
792 986 990 28
793 991 992 28
794 991 993 28
795 991 994 28
796 991 995 28
797 996 997 28
798 996 998 28
799 996 999 28
800 996 1000 28
801 1001 1002 28
802 1001 1003 28
803 1001 1004 28
804 1001 1005 28
805 1006 1007 28
806 1006 1008 28
807 1006 1009 28
808 1006 1010 28
809 1011 1012 28
810 1011 1013 28
811 1011 1014 28
812 1011 1015 28
813 1016 1017 28
814 1016 1018 28
815 1016 1019 28
816 1016 1020 28
817 1021 1022 28
818 1021 1023 28
819 1021 1024 28
820 1021 1025 28
821 1026 1027 28
822 1026 1028 28
823 1026 1029 28
824 1026 1030 28
825 1031 1032 28
826 1031 1033 28
827 1031 1034 28
828 1031 1035 28
829 1036 1037 28
830 1036 1038 28
831 1036 1039 28
832 1036 1040 28
833 1041 1042 28
834 1041 1043 28
835 1041 1044 28
836 1041 1045 28
837 1046 1047 28
838 1046 1048 28
839 1046 1049 28
840 1046 1050 28
841 1051 1052 28
842 1051 1053 28
843 1051 1054 28
844 1051 1055 28
845 1056 1057 28
846 1056 1058 28
847 1056 1059 28
848 1056 1060 28
849 1061 1062 28
850 1061 1063 28
851 1061 1064 28
852 1061 1065 28
853 1066 1067 28
854 1066 1068 28
855 1066 1069 28
856 1066 1070 28
857 1071 1072 28
858 1071 1073 28
859 1071 1074 28
860 1071 1075 28
861 1076 1077 28
862 1076 1078 28
863 1076 1079 28
864 1076 1080 28
865 1081 1082 28
866 1081 1083 28
867 1081 1084 28
868 1081 1085 28
869 1086 1087 28
870 1086 1088 28
871 1086 1089 28
872 1086 1090 28
873 1091 1092 28
874 1091 1093 28
875 1091 1094 28
876 1091 1095 28
877 1096 1097 28
878 1096 1098 28
879 1096 1099 28
880 1096 1100 28
881 1101 1102 28
882 1101 1103 28
883 1101 1104 28
884 1101 1105 28
885 1106 1107 28
886 1106 1108 28
887 1106 1109 28
888 1106 1110 28
889 1111 1112 28
890 1111 1113 28
891 1111 1114 28
892 1111 1115 28
893 1116 1117 28
894 1116 1118 28
895 1116 1119 28
896 1116 1120 28
897 1121 1122 28
898 1121 1123 28
899 1121 1124 28
900 1121 1125 28
901 1126 1127 28
902 1126 1128 28
903 1126 1129 28
904 1126 1130 28
905 1131 1132 28
906 1131 1133 28
907 1131 1134 28
908 1131 1135 28
909 1136 1137 28
910 1136 1138 28
911 1136 1139 28
912 1136 1140 28
913 1141 1142 28
914 1141 1143 28
915 1141 1144 28
916 1141 1145 28
917 1146 1147 28
918 1146 1148 28
919 1146 1149 28
920 1146 1150 28
921 1151 1152 28
922 1151 1153 28
923 1151 1154 28
924 1151 1155 28
925 1156 1157 28
926 1156 1158 28
927 1156 1159 28
928 1156 1160 28
929 1161 1162 28
930 1161 1163 28
931 1161 1164 28
932 1161 1165 28
933 1166 1167 28
934 1166 1168 28
935 1166 1169 28
936 1166 1170 28
937 1171 1172 28
938 1171 1173 28
939 1171 1174 28
940 1171 1175 28
941 1176 1177 28
942 1176 1178 28
943 1176 1179 28
944 1176 1180 28
945 1181 1182 28
946 1181 1183 28
947 1181 1184 28
948 1181 1185 28
949 1186 1187 28
950 1186 1188 28
951 1186 1189 28
952 1186 1190 28
953 1191 1192 28
954 1191 1193 28
955 1191 1194 28
956 1191 1195 28
957 1196 1197 28
958 1196 1198 28
959 1196 1199 28
960 1196 1200 28
961 1201 1202 28
962 1201 1203 28
963 1201 1204 28
964 1201 1205 28
965 1206 1207 28
966 1206 1208 28
967 1206 1209 28
968 1206 1210 28
969 1211 1212 28
970 1211 1213 28
971 1211 1214 28
972 1211 1215 28
973 1216 1217 28
974 1216 1218 28
975 1216 1219 28
976 1216 1220 28
977 1221 1222 28
978 1221 1223 28
979 1221 1224 28
980 1221 1225 28
981 1226 1227 28
982 1226 1228 28
983 1226 1229 28
984 1226 1230 28
985 1231 1232 28
986 1231 1233 28
987 1231 1234 28
988 1231 1235 28
989 1236 1237 28
990 1236 1238 28
991 1236 1239 28
992 1236 1240 28
993 1241 1242 28
994 1241 1243 28
995 1241 1244 28
996 1241 1245 28
997 1246 1247 28
998 1246 1248 28
999 1246 1249 28
1000 1246 1250 28
1001 1251 1252 28
1002 1251 1253 28
1003 1251 1254 28
1004 1251 1255 28
1005 1256 1257 28
1006 1256 1258 28
1007 1256 1259 28
1008 1256 1260 28
1009 1261 1262 28
1010 1261 1263 28
1011 1261 1264 28
1012 1261 1265 28
1013 1266 1267 28
1014 1266 1268 28
1015 1266 1269 28
1016 1266 1270 28
1017 1271 1272 28
1018 1271 1273 28
1019 1271 1274 28
1020 1271 1275 28
1021 1276 1277 28
1022 1276 1278 28
1023 1276 1279 28
1024 1276 1280 28
1025 1281 1282 28
1026 1281 1283 28
1027 1281 1284 28
1028 1281 1285 28
1029 1286 1287 28
1030 1286 1288 28
1031 1286 1289 28
1032 1286 1290 28
1033 1291 1292 28
1034 1291 1293 28
1035 1291 1294 28
1036 1291 1295 28
1037 1296 1297 28
1038 1296 1298 28
1039 1296 1299 28
1040 1296 1300 28
1041 1301 1302 28
1042 1301 1303 28
1043 1301 1304 28
1044 1301 1305 28
1045 1306 1307 28
1046 1306 1308 28
1047 1306 1309 28
1048 1306 1310 28
1049 1311 1312 28
1050 1311 1313 28
1051 1311 1314 28
1052 1311 1315 28
1053 1316 1317 28
1054 1316 1318 28
1055 1316 1319 28
1056 1316 1320 28
1057 1321 1322 28
1058 1321 1323 28
1059 1321 1324 28
1060 1321 1325 28
1061 1326 1327 28
1062 1326 1328 28
1063 1326 1329 28
1064 1326 1330 28
1065 1331 1332 28
1066 1331 1333 28
1067 1331 1334 28
1068 1331 1335 28
1069 1336 1337 28
1070 1336 1338 28
1071 1336 1339 28
1072 1336 1340 28
1073 1341 1342 28
1074 1341 1343 28
1075 1341 1344 28
1076 1341 1345 28
1077 1346 1347 28
1078 1346 1348 28
1079 1346 1349 28
1080 1346 1350 28
1081 1351 1352 28
1082 1351 1353 28
1083 1351 1354 28
1084 1351 1355 28
1085 1356 1357 28
1086 1356 1358 28
1087 1356 1359 28
1088 1356 1360 28
1089 1361 1362 28
1090 1361 1363 28
1091 1361 1364 28
1092 1361 1365 28
1093 1366 1367 28
1094 1366 1368 28
1095 1366 1369 28
1096 1366 1370 28
1097 1371 1372 28
1098 1371 1373 28
1099 1371 1374 28
1100 1371 1375 28
1101 1376 1377 28
1102 1376 1378 28
1103 1376 1379 28
1104 1376 1380 28
1105 1381 1382 28
1106 1381 1383 28
1107 1381 1384 28
1108 1381 1385 28
1109 1386 1387 28
1110 1386 1388 28
1111 1386 1389 28
1112 1386 1390 28
1113 1391 1392 28
1114 1391 1393 28
1115 1391 1394 28
1116 1391 1395 28
1117 1396 1397 28
1118 1396 1398 28
1119 1396 1399 28
1120 1396 1400 28
1121 1401 1402 28
1122 1401 1403 28
1123 1401 1404 28
1124 1401 1405 28
1125 1406 1407 28
1126 1406 1408 28
1127 1406 1409 28
1128 1406 1410 28
1129 1411 1412 28
1130 1411 1413 28
1131 1411 1414 28
1132 1411 1415 28
1133 1416 1417 28
1134 1416 1418 28
1135 1416 1419 28
1136 1416 1420 28
1137 1421 1422 28
1138 1421 1423 28
1139 1421 1424 28
1140 1421 1425 28
1141 1426 1427 28
1142 1426 1428 28
1143 1426 1429 28
1144 1426 1430 28
1145 1431 1432 28
1146 1431 1433 28
1147 1431 1434 28
1148 1431 1435 28
1149 1436 1437 28
1150 1436 1438 28
1151 1436 1439 28
1152 1436 1440 28
1153 1441 1442 28
1154 1441 1443 28
1155 1441 1444 28
1156 1441 1445 28
1157 1446 1447 28
1158 1446 1448 28
1159 1446 1449 28
1160 1446 1450 28
1161 1451 1452 28
1162 1451 1453 28
1163 1451 1454 28
1164 1451 1455 28
1165 1456 1457 28
1166 1456 1458 28
1167 1456 1459 28
1168 1456 1460 28
1169 1461 1462 28
1170 1461 1463 28
1171 1461 1464 28
1172 1461 1465 28
1173 1466 1467 28
1174 1466 1468 28
1175 1466 1469 28
1176 1466 1470 28
1177 1471 1472 28
1178 1471 1473 28
1179 1471 1474 28
1180 1471 1475 28
1181 1476 1477 28
1182 1476 1478 28
1183 1476 1479 28
1184 1476 1480 28
1185 1481 1482 28
1186 1481 1483 28
1187 1481 1484 28
1188 1481 1485 28
1189 1486 1487 28
1190 1486 1488 28
1191 1486 1489 28
1192 1486 1490 28
1193 1491 1492 28
1194 1491 1493 28
1195 1491 1494 28
1196 1491 1495 28
1197 1496 1497 28
1198 1496 1498 28
1199 1496 1499 28
1200 1496 1500 28
1201 1501 1502 28
1202 1501 1503 28
1203 1501 1504 28
1204 1501 1505 28
1205 1506 1507 28
1206 1506 1508 28
1207 1506 1509 28
1208 1506 1510 28
1209 1511 1512 28
1210 1511 1513 28
1211 1511 1514 28
1212 1511 1515 28
1213 1516 1517 28
1214 1516 1518 28
1215 1516 1519 28
1216 1516 1520 28
1217 1521 1522 28
1218 1521 1523 28
1219 1521 1524 28
1220 1521 1525 28
1221 1526 1527 28
1222 1526 1528 28
1223 1526 1529 28
1224 1526 1530 28
1225 1531 1532 28
1226 1531 1533 28
1227 1531 1534 28
1228 1531 1535 28
1229 1536 1537 28
1230 1536 1538 28
1231 1536 1539 28
1232 1536 1540 28
1233 1541 1542 28
1234 1541 1543 28
1235 1541 1544 28
1236 1541 1545 28
1237 1546 1547 28
1238 1546 1548 28
1239 1546 1549 28
1240 1546 1550 28
1241 1551 1552 28
1242 1551 1553 28
1243 1551 1554 28
1244 1551 1555 28
1245 1556 1557 28
1246 1556 1558 28
1247 1556 1559 28
1248 1556 1560 28
1249 1561 1562 28
1250 1561 1563 28
1251 1561 1564 28
1252 1561 1565 28
1253 1566 1567 28
1254 1566 1568 28
1255 1566 1569 28
1256 1566 1570 28
1257 1571 1572 28
1258 1571 1573 28
1259 1571 1574 28
1260 1571 1575 28
1261 1576 1577 28
1262 1576 1578 28
1263 1576 1579 28
1264 1576 1580 28
1265 1581 1582 28
1266 1581 1583 28
1267 1581 1584 28
1268 1581 1585 28
1269 1586 1587 28
1270 1586 1588 28
1271 1586 1589 28
1272 1586 1590 28
1273 1591 1592 28
1274 1591 1593 28
1275 1591 1594 28
1276 1591 1595 28
1277 1596 1597 28
1278 1596 1598 28
1279 1596 1599 28
1280 1596 1600 28
1281 1601 1602 28
1282 1601 1603 28
1283 1601 1604 28
1284 1601 1605 28
1285 1606 1607 28
1286 1606 1608 28
1287 1606 1609 28
1288 1606 1610 28
1289 1611 1612 28
1290 1611 1613 28
1291 1611 1614 28
1292 1611 1615 28
1293 1616 1617 28
1294 1616 1618 28
1295 1616 1619 28
1296 1616 1620 28
1297 1621 1622 28
1298 1621 1623 28
1299 1621 1624 28
1300 1621 1625 28
1301 1626 1627 28
1302 1626 1628 28
1303 1626 1629 28
1304 1626 1630 28
1305 1631 1632 28
1306 1631 1633 28
1307 1631 1634 28
1308 1631 1635 28
1309 1636 1637 28
1310 1636 1638 28
1311 1636 1639 28
1312 1636 1640 28
1313 1641 1642 28
1314 1641 1643 28
1315 1641 1644 28
1316 1641 1645 28
1317 1646 1647 28
1318 1646 1648 28
1319 1646 1649 28
1320 1646 1650 28
1321 1651 1652 28
1322 1651 1653 28
1323 1651 1654 28
1324 1651 1655 28
1325 1656 1657 28
1326 1656 1658 28
1327 1656 1659 28
1328 1656 1660 28
1329 1661 1662 28
1330 1661 1663 28
1331 1661 1664 28
1332 1661 1665 28
1333 1666 1667 28
1334 1666 1668 28
1335 1666 1669 28
1336 1666 1670 28
1337 1671 1672 28
1338 1671 1673 28
1339 1671 1674 28
1340 1671 1675 28
1341 1676 1677 28
1342 1676 1678 28
1343 1676 1679 28
1344 1676 1680 28
1345 1681 1682 28
1346 1681 1683 28
1347 1681 1684 28
1348 1681 1685 28
1349 1686 1687 28
1350 1686 1688 28
1351 1686 1689 28
1352 1686 1690 28
1353 1691 1692 28
1354 1691 1693 28
1355 1691 1694 28
1356 1691 1695 28
1357 1696 1697 28
1358 1696 1698 28
1359 1696 1699 28
1360 1696 1700 28
1361 1701 1702 28
1362 1701 1703 28
1363 1701 1704 28
1364 1701 1705 28
1365 1706 1707 28
1366 1706 1708 28
1367 1706 1709 28
1368 1706 1710 28
1369 1711 1712 28
1370 1711 1713 28
1371 1711 1714 28
1372 1711 1715 28
1373 1716 1717 28
1374 1716 1718 28
1375 1716 1719 28
1376 1716 1720 28
1377 1721 1722 28
1378 1721 1723 28
1379 1721 1724 28
1380 1721 1725 28
1381 1726 1727 28
1382 1726 1728 28
1383 1726 1729 28
1384 1726 1730 28
1385 1731 1732 28
1386 1731 1733 28
1387 1731 1734 28
1388 1731 1735 28
1389 1736 1737 28
1390 1736 1738 28
1391 1736 1739 28
1392 1736 1740 28
1393 1741 1742 28
1394 1741 1743 28
1395 1741 1744 28
1396 1741 1745 28
1397 1746 1747 28
1398 1746 1748 28
1399 1746 1749 28
1400 1746 1750 28
1401 1751 1752 28
1402 1751 1753 28
1403 1751 1754 28
1404 1751 1755 28
1405 1756 1757 28
1406 1756 1758 28
1407 1756 1759 28
1408 1756 1760 28
1409 1761 1762 28
1410 1761 1763 28
1411 1761 1764 28
1412 1761 1765 28
1413 1766 1767 28
1414 1766 1768 28
1415 1766 1769 28
1416 1766 1770 28
1417 1771 1772 28
1418 1771 1773 28
1419 1771 1774 28
1420 1771 1775 28
1421 1776 1777 28
1422 1776 1778 28
1423 1776 1779 28
1424 1776 1780 28
1425 1781 1782 28
1426 1781 1783 28
1427 1781 1784 28
1428 1781 1785 28
1429 1786 1787 28
1430 1786 1788 28
1431 1786 1789 28
1432 1786 1790 28
1433 1791 1792 28
1434 1791 1793 28
1435 1791 1794 28
1436 1791 1795 28
1437 1796 1797 28
1438 1796 1798 28
1439 1796 1799 28
1440 1796 1800 28
1441 1801 1802 28
1442 1801 1803 28
1443 1801 1804 28
1444 1801 1805 28
1445 1806 1807 28
1446 1806 1808 28
1447 1806 1809 28
1448 1806 1810 28
1449 1811 1812 28
1450 1811 1813 28
1451 1811 1814 28
1452 1811 1815 28
1453 1816 1817 28
1454 1816 1818 28
1455 1816 1819 28
1456 1816 1820 28
1457 1821 1822 28
1458 1821 1823 28
1459 1821 1824 28
1460 1821 1825 28
1461 1826 1827 28
1462 1826 1828 28
1463 1826 1829 28
1464 1826 1830 28
1465 1831 1832 28
1466 1831 1833 28
1467 1831 1834 28
1468 1831 1835 28
1469 1836 1837 28
1470 1836 1838 28
1471 1836 1839 28
1472 1836 1840 28
1473 1841 1842 28
1474 1841 1843 28
1475 1841 1844 28
1476 1841 1845 28
1477 1846 1847 28
1478 1846 1848 28
1479 1846 1849 28
1480 1846 1850 28
1481 1851 1852 28
1482 1851 1853 28
1483 1851 1854 28
1484 1851 1855 28
1485 1856 1857 28
1486 1856 1858 28
1487 1856 1859 28
1488 1856 1860 28
1489 1861 1862 28
1490 1861 1863 28
1491 1861 1864 28
1492 1861 1865 28
1493 1866 1867 28
1494 1866 1868 28
1495 1866 1869 28
1496 1866 1870 28
1497 1871 1872 28
1498 1871 1873 28
1499 1871 1874 28
1500 1871 1875 28
1501 1876 1877 28
1502 1876 1878 28
1503 1876 1879 28
1504 1876 1880 28
1505 1881 1882 28
1506 1881 1883 28
1507 1881 1884 28
1508 1881 1885 28
1509 1886 1887 28
1510 1886 1888 28
1511 1886 1889 28
1512 1886 1890 28
1513 1891 1892 28
1514 1891 1893 28
1515 1891 1894 28
1516 1891 1895 28
1517 1896 1897 28
1518 1896 1898 28
1519 1896 1899 28
1520 1896 1900 28
1521 1901 1902 28
1522 1901 1903 28
1523 1901 1904 28
1524 1901 1905 28
1525 1906 1907 28
1526 1906 1908 28
1527 1906 1909 28
1528 1906 1910 28
1529 1911 1912 28
1530 1911 1913 28
1531 1911 1914 28
1532 1911 1915 28
1533 1916 1917 28
1534 1916 1918 28
1535 1916 1919 28
1536 1916 1920 28
1537 1921 1922 28
1538 1921 1923 28
1539 1921 1924 28
1540 1921 1925 28
1541 1926 1927 28
1542 1926 1928 28
1543 1926 1929 28
1544 1926 1930 28
1545 1931 1932 28
1546 1931 1933 28
1547 1931 1934 28
1548 1931 1935 28
1549 1936 1937 28
1550 1936 1938 28
1551 1936 1939 28
1552 1936 1940 28
1553 1941 1942 28
1554 1941 1943 28
1555 1941 1944 28
1556 1941 1945 28
1557 1946 1947 28
1558 1946 1948 28
1559 1946 1949 28
1560 1946 1950 28
1561 1951 1952 28
1562 1951 1953 28
1563 1951 1954 28
1564 1951 1955 28
1565 1956 1957 28
1566 1956 1958 28
1567 1956 1959 28
1568 1956 1960 28
1569 1961 1962 28
1570 1961 1963 28
1571 1961 1964 28
1572 1961 1965 28
1573 1966 1967 28
1574 1966 1968 28
1575 1966 1969 28
1576 1966 1970 28
1577 1971 1972 28
1578 1971 1973 28
1579 1971 1974 28
1580 1971 1975 28
1581 1976 1977 28
1582 1976 1978 28
1583 1976 1979 28
1584 1976 1980 28
1585 1981 1982 28
1586 1981 1983 28
1587 1981 1984 28
1588 1981 1985 28
1589 1986 1987 28
1590 1986 1988 28
1591 1986 1989 28
1592 1986 1990 28
1593 1991 1992 28
1594 1991 1993 28
1595 1991 1994 28
1596 1991 1995 28
1597 1996 1997 28
1598 1996 1998 28
1599 1996 1999 28
1600 1996 2000 28
1601 2001 2002 28
1602 2001 2003 28
1603 2001 2004 28
1604 2001 2005 28
1605 2006 2007 28
1606 2006 2008 28
1607 2006 2009 28
1608 2006 2010 28
1609 2011 2012 28
1610 2011 2013 28
1611 2011 2014 28
1612 2011 2015 28
1613 2016 2017 28
1614 2016 2018 28
1615 2016 2019 28
1616 2016 2020 28
1617 2021 2022 28
1618 2021 2023 28
1619 2021 2024 28
1620 2021 2025 28
1621 2026 2027 28
1622 2026 2028 28
1623 2026 2029 28
1624 2026 2030 28
1625 2031 2032 28
1626 2031 2033 28
1627 2031 2034 28
1628 2031 2035 28
1629 2036 2037 28
1630 2036 2038 28
1631 2036 2039 28
1632 2036 2040 28
1633 2041 2042 28
1634 2041 2043 28
1635 2041 2044 28
1636 2041 2045 28
1637 2046 2047 28
1638 2046 2048 28
1639 2046 2049 28
1640 2046 2050 28
1641 2051 2052 28
1642 2051 2053 28
1643 2051 2054 28
1644 2051 2055 28
1645 2056 2057 28
1646 2056 2058 28
1647 2056 2059 28
1648 2056 2060 28
1649 2061 2062 28
1650 2061 2063 28
1651 2061 2064 28
1652 2061 2065 28
1653 2066 2067 28
1654 2066 2068 28
1655 2066 2069 28
1656 2066 2070 28
1657 2071 2072 28
1658 2071 2073 28
1659 2071 2074 28
1660 2071 2075 28
1661 2076 2077 28
1662 2076 2078 28
1663 2076 2079 28
1664 2076 2080 28
1665 2081 2082 28
1666 2081 2083 28
1667 2081 2084 28
1668 2081 2085 28
1669 2086 2087 28
1670 2086 2088 28
1671 2086 2089 28
1672 2086 2090 28
1673 2091 2092 28
1674 2091 2093 28
1675 2091 2094 28
1676 2091 2095 28
1677 2096 2097 28
1678 2096 2098 28
1679 2096 2099 28
1680 2096 2100 28
1681 2101 2102 28
1682 2101 2103 28
1683 2101 2104 28
1684 2101 2105 28
1685 2106 2107 28
1686 2106 2108 28
1687 2106 2109 28
1688 2106 2110 28
1689 2111 2112 28
1690 2111 2113 28
1691 2111 2114 28
1692 2111 2115 28
1693 2116 2117 28
1694 2116 2118 28
1695 2116 2119 28
1696 2116 2120 28
1697 2121 2122 28
1698 2121 2123 28
1699 2121 2124 28
1700 2121 2125 28
1701 2126 2127 28
1702 2126 2128 28
1703 2126 2129 28
1704 2126 2130 28
1705 2131 2132 28
1706 2131 2133 28
1707 2131 2134 28
1708 2131 2135 28
1709 2136 2137 28
1710 2136 2138 28
1711 2136 2139 28
1712 2136 2140 28
1713 2141 2142 28
1714 2141 2143 28
1715 2141 2144 28
1716 2141 2145 28
1717 2146 2147 28
1718 2146 2148 28
1719 2146 2149 28
1720 2146 2150 28
1721 2151 2152 28
1722 2151 2153 28
1723 2151 2154 28
1724 2151 2155 28
1725 2156 2157 28
1726 2156 2158 28
1727 2156 2159 28
1728 2156 2160 28
1729 2161 2162 28
1730 2161 2163 28
1731 2161 2164 28
1732 2161 2165 28
1733 2166 2167 28
1734 2166 2168 28
1735 2166 2169 28
1736 2166 2170 28
1737 2171 2172 28
1738 2171 2173 28
1739 2171 2174 28
1740 2171 2175 28
1741 2176 2177 28
1742 2176 2178 28
1743 2176 2179 28
1744 2176 2180 28
1745 2181 2182 28
1746 2181 2183 28
1747 2181 2184 28
1748 2181 2185 28
1749 2186 2187 28
1750 2186 2188 28
1751 2186 2189 28
1752 2186 2190 28
1753 2191 2192 28
1754 2191 2193 28
1755 2191 2194 28
1756 2191 2195 28
1757 2196 2197 28
1758 2196 2198 28
1759 2196 2199 28
1760 2196 2200 28
1761 2201 2202 28
1762 2201 2203 28
1763 2201 2204 28
1764 2201 2205 28
1765 2206 2207 28
1766 2206 2208 28
1767 2206 2209 28
1768 2206 2210 28
1769 2211 2212 28
1770 2211 2213 28
1771 2211 2214 28
1772 2211 2215 28
1773 2216 2217 28
1774 2216 2218 28
1775 2216 2219 28
1776 2216 2220 28
1777 2221 2222 28
1778 2221 2223 28
1779 2221 2224 28
1780 2221 2225 28
1781 2226 2227 28
1782 2226 2228 28
1783 2226 2229 28
1784 2226 2230 28
1785 2231 2232 28
1786 2231 2233 28
1787 2231 2234 28
1788 2231 2235 28
1789 2236 2237 28
1790 2236 2238 28
1791 2236 2239 28
1792 2236 2240 28
1793 2241 2242 28
1794 2241 2243 28
1795 2241 2244 28
1796 2241 2245 28
1797 2246 2247 28
1798 2246 2248 28
1799 2246 2249 28
1800 2246 2250 28
1801 2251 2252 28
1802 2251 2253 28
1803 2251 2254 28
1804 2251 2255 28
1805 2256 2257 28
1806 2256 2258 28
1807 2256 2259 28
1808 2256 2260 28
1809 2261 2262 28
1810 2261 2263 28
1811 2261 2264 28
1812 2261 2265 28
1813 2266 2267 28
1814 2266 2268 28
1815 2266 2269 28
1816 2266 2270 28
1817 2271 2272 28
1818 2271 2273 28
1819 2271 2274 28
1820 2271 2275 28
1821 2276 2277 28
1822 2276 2278 28
1823 2276 2279 28
1824 2276 2280 28
1825 2281 2282 28
1826 2281 2283 28
1827 2281 2284 28
1828 2281 2285 28
1829 2286 2287 28
1830 2286 2288 28
1831 2286 2289 28
1832 2286 2290 28
1833 2291 2292 28
1834 2291 2293 28
1835 2291 2294 28
1836 2291 2295 28
1837 2296 2297 28
1838 2296 2298 28
1839 2296 2299 28
1840 2296 2300 28
1841 2301 2302 28
1842 2301 2303 28
1843 2301 2304 28
1844 2301 2305 28
1845 2306 2307 28
1846 2306 2308 28
1847 2306 2309 28
1848 2306 2310 28
1849 2311 2312 28
1850 2311 2313 28
1851 2311 2314 28
1852 2311 2315 28
1853 2316 2317 28
1854 2316 2318 28
1855 2316 2319 28
1856 2316 2320 28
1857 2321 2322 28
1858 2321 2323 28
1859 2321 2324 28
1860 2321 2325 28
1861 2326 2327 28
1862 2326 2328 28
1863 2326 2329 28
1864 2326 2330 28
1865 2331 2332 28
1866 2331 2333 28
1867 2331 2334 28
1868 2331 2335 28
1869 2336 2337 28
1870 2336 2338 28
1871 2336 2339 28
1872 2336 2340 28
1873 2341 2342 28
1874 2341 2343 28
1875 2341 2344 28
1876 2341 2345 28
1877 2346 2347 28
1878 2346 2348 28
1879 2346 2349 28
1880 2346 2350 28
1881 2351 2352 28
1882 2351 2353 28
1883 2351 2354 28
1884 2351 2355 28
1885 2356 2357 28
1886 2356 2358 28
1887 2356 2359 28
1888 2356 2360 28
1889 2361 2362 28
1890 2361 2363 28
1891 2361 2364 28
1892 2361 2365 28
1893 2366 2367 28
1894 2366 2368 28
1895 2366 2369 28
1896 2366 2370 28
1897 2371 2372 28
1898 2371 2373 28
1899 2371 2374 28
1900 2371 2375 28
1901 2376 2377 28
1902 2376 2378 28
1903 2376 2379 28
1904 2376 2380 28
1905 2381 2382 28
1906 2381 2383 28
1907 2381 2384 28
1908 2381 2385 28
1909 2386 2387 28
1910 2386 2388 28
1911 2386 2389 28
1912 2386 2390 28
1913 2391 2392 28
1914 2391 2393 28
1915 2391 2394 28
1916 2391 2395 28
1917 2396 2397 28
1918 2396 2398 28
1919 2396 2399 28
1920 2396 2400 28
1921 2401 2402 28
1922 2401 2403 28
1923 2401 2404 28
1924 2401 2405 28
1925 2406 2407 28
1926 2406 2408 28
1927 2406 2409 28
1928 2406 2410 28
1929 2411 2412 28
1930 2411 2413 28
1931 2411 2414 28
1932 2411 2415 28
1933 2416 2417 28
1934 2416 2418 28
1935 2416 2419 28
1936 2416 2420 28
1937 2421 2422 28
1938 2421 2423 28
1939 2421 2424 28
1940 2421 2425 28
1941 2426 2427 28
1942 2426 2428 28
1943 2426 2429 28
1944 2426 2430 28
1945 2431 2432 28
1946 2431 2433 28
1947 2431 2434 28
1948 2431 2435 28
1949 2436 2437 28
1950 2436 2438 28
1951 2436 2439 28
1952 2436 2440 28
1953 2441 2442 28
1954 2441 2443 28
1955 2441 2444 28
1956 2441 2445 28
1957 2446 2447 28
1958 2446 2448 28
1959 2446 2449 28
1960 2446 2450 28
1961 2451 2452 28
1962 2451 2453 28
1963 2451 2454 28
1964 2451 2455 28
1965 2456 2457 28
1966 2456 2458 28
1967 2456 2459 28
1968 2456 2460 28
1969 2461 2462 28
1970 2461 2463 28
1971 2461 2464 28
1972 2461 2465 28
1973 2466 2467 28
1974 2466 2468 28
1975 2466 2469 28
1976 2466 2470 28
1977 2471 2472 28
1978 2471 2473 28
1979 2471 2474 28
1980 2471 2475 28
1981 2476 2477 28
1982 2476 2478 28
1983 2476 2479 28
1984 2476 2480 28
1985 2481 2482 28
1986 2481 2483 28
1987 2481 2484 28
1988 2481 2485 28
1989 2486 2487 28
1990 2486 2488 28
1991 2486 2489 28
1992 2486 2490 28
1993 2491 2492 28
1994 2491 2493 28
1995 2491 2494 28
1996 2491 2495 28
1997 2496 2497 28
1998 2496 2498 28
1999 2496 2499 28
2000 2496 2500 28
2001 2501 2502 28
2002 2501 2503 28
2003 2501 2504 28
2004 2501 2505 28
2005 2506 2507 28
2006 2506 2508 28
2007 2506 2509 28
2008 2506 2510 28
2009 2511 2512 28
2010 2511 2513 28
2011 2511 2514 28
2012 2511 2515 28
2013 2516 2517 28
2014 2516 2518 28
2015 2516 2519 28
2016 2516 2520 28
2017 2521 2522 28
2018 2521 2523 28
2019 2521 2524 28
2020 2521 2525 28
2021 2526 2527 28
2022 2526 2528 28
2023 2526 2529 28
2024 2526 2530 28
2025 2531 2532 28
2026 2531 2533 28
2027 2531 2534 28
2028 2531 2535 28
2029 2536 2537 28
2030 2536 2538 28
2031 2536 2539 28
2032 2536 2540 28
2033 2541 2542 28
2034 2541 2543 28
2035 2541 2544 28
2036 2541 2545 28
2037 2546 2547 28
2038 2546 2548 28
2039 2546 2549 28
2040 2546 2550 28
2041 2551 2552 28
2042 2551 2553 28
2043 2551 2554 28
2044 2551 2555 28
2045 2556 2557 28
2046 2556 2558 28
2047 2556 2559 28
2048 2556 2560 28
2049 2561 2562 28
2050 2561 2563 28
2051 2561 2564 28
2052 2561 2565 28
2053 2566 2567 28
2054 2566 2568 28
2055 2566 2569 28
2056 2566 2570 28
2057 2571 2572 28
2058 2571 2573 28
2059 2571 2574 28
2060 2571 2575 28
2061 2576 2577 28
2062 2576 2578 28
2063 2576 2579 28
2064 2576 2580 28
2065 2581 2582 28
2066 2581 2583 28
2067 2581 2584 28
2068 2581 2585 28
2069 2586 2587 28
2070 2586 2588 28
2071 2586 2589 28
2072 2586 2590 28
2073 2591 2592 28
2074 2591 2593 28
2075 2591 2594 28
2076 2591 2595 28
2077 2596 2597 28
2078 2596 2598 28
2079 2596 2599 28
2080 2596 2600 28
2081 2601 2602 28
2082 2601 2603 28
2083 2601 2604 28
2084 2601 2605 28
2085 2606 2607 28
2086 2606 2608 28
2087 2606 2609 28
2088 2606 2610 28
2089 2611 2612 28
2090 2611 2613 28
2091 2611 2614 28
2092 2611 2615 28
2093 2616 2617 28
2094 2616 2618 28
2095 2616 2619 28
2096 2616 2620 28
2097 2621 2622 28
2098 2621 2623 28
2099 2621 2624 28
2100 2621 2625 28
2101 2626 2627 28
2102 2626 2628 28
2103 2626 2629 28
2104 2626 2630 28
2105 2631 2632 28
2106 2631 2633 28
2107 2631 2634 28
2108 2631 2635 28
2109 2636 2637 28
2110 2636 2638 28
2111 2636 2639 28
2112 2636 2640 28
2113 2641 2642 28
2114 2641 2643 28
2115 2641 2644 28
2116 2641 2645 28
2117 2646 2647 28
2118 2646 2648 28
2119 2646 2649 28
2120 2646 2650 28
2121 2651 2652 28
2122 2651 2653 28
2123 2651 2654 28
2124 2651 2655 28
2125 2656 2657 28
2126 2656 2658 28
2127 2656 2659 28
2128 2656 2660 28
2129 2661 2662 28
2130 2661 2663 28
2131 2661 2664 28
2132 2661 2665 28
2133 2666 2667 28
2134 2666 2668 28
2135 2666 2669 28
2136 2666 2670 28
2137 2671 2672 28
2138 2671 2673 28
2139 2671 2674 28
2140 2671 2675 28
2141 2676 2677 28
2142 2676 2678 28
2143 2676 2679 28
2144 2676 2680 28
2145 2681 2682 28
2146 2681 2683 28
2147 2681 2684 28
2148 2681 2685 28
2149 2686 2687 28
2150 2686 2688 28
2151 2686 2689 28
2152 2686 2690 28
2153 2691 2692 28
2154 2691 2693 28
2155 2691 2694 28
2156 2691 2695 28
2157 2696 2697 28
2158 2696 2698 28
2159 2696 2699 28
2160 2696 2700 28
2161 2701 2702 28
2162 2701 2703 28
2163 2701 2704 28
2164 2701 2705 28
2165 2706 2707 28
2166 2706 2708 28
2167 2706 2709 28
2168 2706 2710 28
2169 2711 2712 28
2170 2711 2713 28
2171 2711 2714 28
2172 2711 2715 28
2173 2716 2717 28
2174 2716 2718 28
2175 2716 2719 28
2176 2716 2720 28
2177 2721 2722 28
2178 2721 2723 28
2179 2721 2724 28
2180 2721 2725 28
2181 2726 2727 28
2182 2726 2728 28
2183 2726 2729 28
2184 2726 2730 28
2185 2731 2732 28
2186 2731 2733 28
2187 2731 2734 28
2188 2731 2735 28
2189 2736 2737 28
2190 2736 2738 28
2191 2736 2739 28
2192 2736 2740 28
2193 2741 2742 28
2194 2741 2743 28
2195 2741 2744 28
2196 2741 2745 28
2197 2746 2747 28
2198 2746 2748 28
2199 2746 2749 28
2200 2746 2750 28
2201 2751 2752 28
2202 2751 2753 28
2203 2751 2754 28
2204 2751 2755 28
2205 2756 2757 28
2206 2756 2758 28
2207 2756 2759 28
2208 2756 2760 28
2209 2761 2762 28
2210 2761 2763 28
2211 2761 2764 28
2212 2761 2765 28
2213 2766 2767 28
2214 2766 2768 28
2215 2766 2769 28
2216 2766 2770 28
2217 2771 2772 28
2218 2771 2773 28
2219 2771 2774 28
2220 2771 2775 28
2221 2776 2777 28
2222 2776 2778 28
2223 2776 2779 28
2224 2776 2780 28
2225 2781 2782 28
2226 2781 2783 28
2227 2781 2784 28
2228 2781 2785 28
2229 2786 2787 28
2230 2786 2788 28
2231 2786 2789 28
2232 2786 2790 28
2233 2791 2792 28
2234 2791 2793 28
2235 2791 2794 28
2236 2791 2795 28
2237 2796 2797 28
2238 2796 2798 28
2239 2796 2799 28
2240 2796 2800 28
2241 2801 2802 28
2242 2801 2803 28
2243 2801 2804 28
2244 2801 2805 28
2245 2806 2807 28
2246 2806 2808 28
2247 2806 2809 28
2248 2806 2810 28
2249 2811 2812 28
2250 2811 2813 28
2251 2811 2814 28
2252 2811 2815 28
2253 2816 2817 28
2254 2816 2818 28
2255 2816 2819 28
2256 2816 2820 28
2257 2821 2822 28
2258 2821 2823 28
2259 2821 2824 28
2260 2821 2825 28
2261 2826 2827 28
2262 2826 2828 28
2263 2826 2829 28
2264 2826 2830 28
2265 2831 2832 28
2266 2831 2833 28
2267 2831 2834 28
2268 2831 2835 28
2269 2836 2837 28
2270 2836 2838 28
2271 2836 2839 28
2272 2836 2840 28
2273 2841 2842 28
2274 2841 2843 28
2275 2841 2844 28
2276 2841 2845 28
2277 2846 2847 28
2278 2846 2848 28
2279 2846 2849 28
2280 2846 2850 28
2281 2851 2852 28
2282 2851 2853 28
2283 2851 2854 28
2284 2851 2855 28
2285 2856 2857 28
2286 2856 2858 28
2287 2856 2859 28
2288 2856 2860 28
2289 2861 2862 28
2290 2861 2863 28
2291 2861 2864 28
2292 2861 2865 28
2293 2866 2867 28
2294 2866 2868 28
2295 2866 2869 28
2296 2866 2870 28
2297 2871 2872 28
2298 2871 2873 28
2299 2871 2874 28
2300 2871 2875 28
2301 2876 2877 28
2302 2876 2878 28
2303 2876 2879 28
2304 2876 2880 28
2305 2881 2882 28
2306 2881 2883 28
2307 2881 2884 28
2308 2881 2885 28
2309 2886 2887 28
2310 2886 2888 28
2311 2886 2889 28
2312 2886 2890 28
2313 2891 2892 28
2314 2891 2893 28
2315 2891 2894 28
2316 2891 2895 28
2317 2896 2897 28
2318 2896 2898 28
2319 2896 2899 28
2320 2896 2900 28
2321 2901 2902 28
2322 2901 2903 28
2323 2901 2904 28
2324 2901 2905 28
2325 2906 2907 28
2326 2906 2908 28
2327 2906 2909 28
2328 2906 2910 28
2329 2911 2912 28
2330 2911 2913 28
2331 2911 2914 28
2332 2911 2915 28
2333 2916 2917 28
2334 2916 2918 28
2335 2916 2919 28
2336 2916 2920 28
2337 2921 2922 28
2338 2921 2923 28
2339 2921 2924 28
2340 2921 2925 28
2341 2926 2927 28
2342 2926 2928 28
2343 2926 2929 28
2344 2926 2930 28
2345 2931 2932 28
2346 2931 2933 28
2347 2931 2934 28
2348 2931 2935 28
2349 2936 2937 28
2350 2936 2938 28
2351 2936 2939 28
2352 2936 2940 28
2353 2941 2942 28
2354 2941 2943 28
2355 2941 2944 28
2356 2941 2945 28
2357 2946 2947 28
2358 2946 2948 28
2359 2946 2949 28
2360 2946 2950 28
2361 2951 2952 28
2362 2951 2953 28
2363 2951 2954 28
2364 2951 2955 28
2365 2956 2957 28
2366 2956 2958 28
2367 2956 2959 28
2368 2956 2960 28
2369 2961 2962 28
2370 2961 2963 28
2371 2961 2964 28
2372 2961 2965 28
2373 2966 2967 28
2374 2966 2968 28
2375 2966 2969 28
2376 2966 2970 28
2377 2971 2972 28
2378 2971 2973 28
2379 2971 2974 28
2380 2971 2975 28
2381 2976 2977 28
2382 2976 2978 28
2383 2976 2979 28
2384 2976 2980 28
2385 2981 2982 28
2386 2981 2983 28
2387 2981 2984 28
2388 2981 2985 28
2389 2986 2987 28
2390 2986 2988 28
2391 2986 2989 28
2392 2986 2990 28
2393 2991 2992 28
2394 2991 2993 28
2395 2991 2994 28
2396 2991 2995 28
2397 2996 2997 28
2398 2996 2998 28
2399 2996 2999 28
2400 2996 3000 28
2401 3001 3002 28
2402 3001 3003 28
2403 3001 3004 28
2404 3001 3005 28
2405 3006 3007 28
2406 3006 3008 28
2407 3006 3009 28
2408 3006 3010 28
2409 3011 3012 28
2410 3011 3013 28
2411 3011 3014 28
2412 3011 3015 28
2413 3016 3017 28
2414 3016 3018 28
2415 3016 3019 28
2416 3016 3020 28
2417 3021 3022 28
2418 3021 3023 28
2419 3021 3024 28
2420 3021 3025 28
2421 3026 3027 28
2422 3026 3028 28
2423 3026 3029 28
2424 3026 3030 28
2425 3031 3032 28
2426 3031 3033 28
2427 3031 3034 28
2428 3031 3035 28
2429 3036 3037 28
2430 3036 3038 28
2431 3036 3039 28
2432 3036 3040 28
2433 3041 3042 28
2434 3041 3043 28
2435 3041 3044 28
2436 3041 3045 28
2437 3046 3047 28
2438 3046 3048 28
2439 3046 3049 28
2440 3046 3050 28
2441 3051 3052 28
2442 3051 3053 28
2443 3051 3054 28
2444 3051 3055 28
2445 3056 3057 28
2446 3056 3058 28
2447 3056 3059 28
2448 3056 3060 28
2449 3061 3062 28
2450 3061 3063 28
2451 3061 3064 28
2452 3061 3065 28
2453 3066 3067 28
2454 3066 3068 28
2455 3066 3069 28
2456 3066 3070 28
2457 3071 3072 28
2458 3071 3073 28
2459 3071 3074 28
2460 3071 3075 28
2461 3076 3077 28
2462 3076 3078 28
2463 3076 3079 28
2464 3076 3080 28
2465 3081 3082 28
2466 3081 3083 28
2467 3081 3084 28
2468 3081 3085 28
2469 3086 3087 28
2470 3086 3088 28
2471 3086 3089 28
2472 3086 3090 28
2473 3091 3092 28
2474 3091 3093 28
2475 3091 3094 28
2476 3091 3095 28
2477 3096 3097 28
2478 3096 3098 28
2479 3096 3099 28
2480 3096 3100 28
2481 3101 3102 28
2482 3101 3103 28
2483 3101 3104 28
2484 3101 3105 28
2485 3106 3107 28
2486 3106 3108 28
2487 3106 3109 28
2488 3106 3110 28
2489 3111 3112 28
2490 3111 3113 28
2491 3111 3114 28
2492 3111 3115 28
2493 3116 3117 28
2494 3116 3118 28
2495 3116 3119 28
2496 3116 3120 28
2497 3121 3122 28
2498 3121 3123 28
2499 3121 3124 28
2500 3121 3125 28
2501 3126 3127 28
2502 3126 3128 28
2503 3126 3129 28
2504 3126 3130 28
2505 3131 3132 28
2506 3131 3133 28
2507 3131 3134 28
2508 3131 3135 28
2509 3136 3137 28
2510 3136 3138 28
2511 3136 3139 28
2512 3136 3140 28
2513 3141 3142 28
2514 3141 3143 28
2515 3141 3144 28
2516 3141 3145 28
2517 3146 3147 28
2518 3146 3148 28
2519 3146 3149 28
2520 3146 3150 28
2521 3151 3152 28
2522 3151 3153 28
2523 3151 3154 28
2524 3151 3155 28
2525 3156 3157 28
2526 3156 3158 28
2527 3156 3159 28
2528 3156 3160 28
2529 3161 3162 28
2530 3161 3163 28
2531 3161 3164 28
2532 3161 3165 28
2533 3166 3167 28
2534 3166 3168 28
2535 3166 3169 28
2536 3166 3170 28
2537 3171 3172 28
2538 3171 3173 28
2539 3171 3174 28
2540 3171 3175 28
2541 3176 3177 28
2542 3176 3178 28
2543 3176 3179 28
2544 3176 3180 28
2545 3181 3182 28
2546 3181 3183 28
2547 3181 3184 28
2548 3181 3185 28
2549 3186 3187 28
2550 3186 3188 28
2551 3186 3189 28
2552 3186 3190 28
2553 3191 3192 28
2554 3191 3193 28
2555 3191 3194 28
2556 3191 3195 28
2557 3196 3197 28
2558 3196 3198 28
2559 3196 3199 28
2560 3196 3200 28
2561 3201 3202 28
2562 3201 3203 28
2563 3201 3204 28
2564 3201 3205 28
2565 3206 3207 28
2566 3206 3208 28
2567 3206 3209 28
2568 3206 3210 28
2569 3211 3212 28
2570 3211 3213 28
2571 3211 3214 28
2572 3211 3215 28
2573 3216 3217 28
2574 3216 3218 28
2575 3216 3219 28
2576 3216 3220 28
2577 3221 3222 28
2578 3221 3223 28
2579 3221 3224 28
2580 3221 3225 28
2581 3226 3227 28
2582 3226 3228 28
2583 3226 3229 28
2584 3226 3230 28
2585 3231 3232 28
2586 3231 3233 28
2587 3231 3234 28
2588 3231 3235 28
2589 3236 3237 28
2590 3236 3238 28
2591 3236 3239 28
2592 3236 3240 28
2593 3241 3242 28
2594 3241 3243 28
2595 3241 3244 28
2596 3241 3245 28
2597 3246 3247 28
2598 3246 3248 28
2599 3246 3249 28
2600 3246 3250 28
2601 3251 3252 28
2602 3251 3253 28
2603 3251 3254 28
2604 3251 3255 28
2605 3256 3257 28
2606 3256 3258 28
2607 3256 3259 28
2608 3256 3260 28
2609 3261 3262 28
2610 3261 3263 28
2611 3261 3264 28
2612 3261 3265 28
2613 3266 3267 28
2614 3266 3268 28
2615 3266 3269 28
2616 3266 3270 28
2617 3271 3272 28
2618 3271 3273 28
2619 3271 3274 28
2620 3271 3275 28
2621 3276 3277 28
2622 3276 3278 28
2623 3276 3279 28
2624 3276 3280 28
2625 3281 3282 28
2626 3281 3283 28
2627 3281 3284 28
2628 3281 3285 28
2629 3286 3287 28
2630 3286 3288 28
2631 3286 3289 28
2632 3286 3290 28
2633 3291 3292 28
2634 3291 3293 28
2635 3291 3294 28
2636 3291 3295 28
2637 3296 3297 28
2638 3296 3298 28
2639 3296 3299 28
2640 3296 3300 28
2641 3301 3302 28
2642 3301 3303 28
2643 3301 3304 28
2644 3301 3305 28
2645 3306 3307 28
2646 3306 3308 28
2647 3306 3309 28
2648 3306 3310 28
2649 3311 3312 28
2650 3311 3313 28
2651 3311 3314 28
2652 3311 3315 28
2653 3316 3317 28
2654 3316 3318 28
2655 3316 3319 28
2656 3316 3320 28
2657 3321 3322 28
2658 3321 3323 28
2659 3321 3324 28
2660 3321 3325 28
2661 3326 3327 28
2662 3326 3328 28
2663 3326 3329 28
2664 3326 3330 28
2665 3331 3332 28
2666 3331 3333 28
2667 3331 3334 28
2668 3331 3335 28
2669 3336 3337 28
2670 3336 3338 28
2671 3336 3339 28
2672 3336 3340 28
2673 3341 3342 28
2674 3341 3343 28
2675 3341 3344 28
2676 3341 3345 28
2677 3346 3347 28
2678 3346 3348 28
2679 3346 3349 28
2680 3346 3350 28
2681 3351 3352 28
2682 3351 3353 28
2683 3351 3354 28
2684 3351 3355 28
2685 3356 3357 28
2686 3356 3358 28
2687 3356 3359 28
2688 3356 3360 28
2689 3361 3362 28
2690 3361 3363 28
2691 3361 3364 28
2692 3361 3365 28
2693 3366 3367 28
2694 3366 3368 28
2695 3366 3369 28
2696 3366 3370 28
2697 3371 3372 28
2698 3371 3373 28
2699 3371 3374 28
2700 3371 3375 28
2701 3376 3377 28
2702 3376 3378 28
2703 3376 3379 28
2704 3376 3380 28
2705 3381 3382 28
2706 3381 3383 28
2707 3381 3384 28
2708 3381 3385 28
2709 3386 3387 28
2710 3386 3388 28
2711 3386 3389 28
2712 3386 3390 28
2713 3391 3392 28
2714 3391 3393 28
2715 3391 3394 28
2716 3391 3395 28
2717 3396 3397 28
2718 3396 3398 28
2719 3396 3399 28
2720 3396 3400 28
2721 3401 3402 28
2722 3401 3403 28
2723 3401 3404 28
2724 3401 3405 28
2725 3406 3407 28
2726 3406 3408 28
2727 3406 3409 28
2728 3406 3410 28
2729 3411 3412 28
2730 3411 3413 28
2731 3411 3414 28
2732 3411 3415 28
2733 3416 3417 28
2734 3416 3418 28
2735 3416 3419 28
2736 3416 3420 28
2737 3421 3422 28
2738 3421 3423 28
2739 3421 3424 28
2740 3421 3425 28
2741 3426 3427 28
2742 3426 3428 28
2743 3426 3429 28
2744 3426 3430 28
2745 3431 3432 28
2746 3431 3433 28
2747 3431 3434 28
2748 3431 3435 28
2749 3436 3437 28
2750 3436 3438 28
2751 3436 3439 28
2752 3436 3440 28
2753 3441 3442 28
2754 3441 3443 28
2755 3441 3444 28
2756 3441 3445 28
2757 3446 3447 28
2758 3446 3448 28
2759 3446 3449 28
2760 3446 3450 28
2761 3451 3452 28
2762 3451 3453 28
2763 3451 3454 28
2764 3451 3455 28
2765 3456 3457 28
2766 3456 3458 28
2767 3456 3459 28
2768 3456 3460 28
2769 3461 3462 28
2770 3461 3463 28
2771 3461 3464 28
2772 3461 3465 28
2773 3466 3467 28
2774 3466 3468 28
2775 3466 3469 28
2776 3466 3470 28
2777 3471 3472 28
2778 3471 3473 28
2779 3471 3474 28
2780 3471 3475 28
2781 3476 3477 28
2782 3476 3478 28
2783 3476 3479 28
2784 3476 3480 28
2785 3481 3482 28
2786 3481 3483 28
2787 3481 3484 28
2788 3481 3485 28
2789 3486 3487 28
2790 3486 3488 28
2791 3486 3489 28
2792 3486 3490 28
2793 3491 3492 28
2794 3491 3493 28
2795 3491 3494 28
2796 3491 3495 28
2797 3496 3497 28
2798 3496 3498 28
2799 3496 3499 28
2800 3496 3500 28
2801 3501 3502 28
2802 3501 3503 28
2803 3501 3504 28
2804 3501 3505 28
2805 3506 3507 28
2806 3506 3508 28
2807 3506 3509 28
2808 3506 3510 28
2809 3511 3512 28
2810 3511 3513 28
2811 3511 3514 28
2812 3511 3515 28
2813 3516 3517 28
2814 3516 3518 28
2815 3516 3519 28
2816 3516 3520 28
2817 3521 3522 28
2818 3521 3523 28
2819 3521 3524 28
2820 3521 3525 28
2821 3526 3527 28
2822 3526 3528 28
2823 3526 3529 28
2824 3526 3530 28
2825 3531 3532 28
2826 3531 3533 28
2827 3531 3534 28
2828 3531 3535 28
2829 3536 3537 28
2830 3536 3538 28
2831 3536 3539 28
2832 3536 3540 28
2833 3541 3542 28
2834 3541 3543 28
2835 3541 3544 28
2836 3541 3545 28
2837 3546 3547 28
2838 3546 3548 28
2839 3546 3549 28
2840 3546 3550 28
2841 3551 3552 28
2842 3551 3553 28
2843 3551 3554 28
2844 3551 3555 28
2845 3556 3557 28
2846 3556 3558 28
2847 3556 3559 28
2848 3556 3560 28
2849 3561 3562 28
2850 3561 3563 28
2851 3561 3564 28
2852 3561 3565 28
2853 3566 3567 28
2854 3566 3568 28
2855 3566 3569 28
2856 3566 3570 28
2857 3571 3572 28
2858 3571 3573 28
2859 3571 3574 28
2860 3571 3575 28
2861 3576 3577 28
2862 3576 3578 28
2863 3576 3579 28
2864 3576 3580 28
2865 3581 3582 28
2866 3581 3583 28
2867 3581 3584 28
2868 3581 3585 28
2869 3586 3587 28
2870 3586 3588 28
2871 3586 3589 28
2872 3586 3590 28
2873 3591 3592 28
2874 3591 3593 28
2875 3591 3594 28
2876 3591 3595 28
2877 3596 3597 28
2878 3596 3598 28
2879 3596 3599 28
2880 3596 3600 28
2881 3601 3602 28
2882 3601 3603 28
2883 3601 3604 28
2884 3601 3605 28
2885 3606 3607 28
2886 3606 3608 28
2887 3606 3609 28
2888 3606 3610 28
2889 3611 3612 28
2890 3611 3613 28
2891 3611 3614 28
2892 3611 3615 28
2893 3616 3617 28
2894 3616 3618 28
2895 3616 3619 28
2896 3616 3620 28
2897 3621 3622 28
2898 3621 3623 28
2899 3621 3624 28
2900 3621 3625 28
2901 3626 3627 28
2902 3626 3628 28
2903 3626 3629 28
2904 3626 3630 28
2905 3631 3632 28
2906 3631 3633 28
2907 3631 3634 28
2908 3631 3635 28
2909 3636 3637 28
2910 3636 3638 28
2911 3636 3639 28
2912 3636 3640 28
2913 3641 3642 28
2914 3641 3643 28
2915 3641 3644 28
2916 3641 3645 28
2917 3646 3647 28
2918 3646 3648 28
2919 3646 3649 28
2920 3646 3650 28
2921 3651 3652 28
2922 3651 3653 28
2923 3651 3654 28
2924 3651 3655 28
2925 3656 3657 28
2926 3656 3658 28
2927 3656 3659 28
2928 3656 3660 28
2929 3661 3662 28
2930 3661 3663 28
2931 3661 3664 28
2932 3661 3665 28
2933 3666 3667 28
2934 3666 3668 28
2935 3666 3669 28
2936 3666 3670 28
2937 3671 3672 28
2938 3671 3673 28
2939 3671 3674 28
2940 3671 3675 28
2941 3676 3677 28
2942 3676 3678 28
2943 3676 3679 28
2944 3676 3680 28
2945 3681 3682 28
2946 3681 3683 28
2947 3681 3684 28
2948 3681 3685 28
2949 3686 3687 28
2950 3686 3688 28
2951 3686 3689 28
2952 3686 3690 28
2953 3691 3692 28
2954 3691 3693 28
2955 3691 3694 28
2956 3691 3695 28
2957 3696 3697 28
2958 3696 3698 28
2959 3696 3699 28
2960 3696 3700 28
2961 3701 3702 28
2962 3701 3703 28
2963 3701 3704 28
2964 3701 3705 28
2965 3706 3707 28
2966 3706 3708 28
2967 3706 3709 28
2968 3706 3710 28
2969 3711 3712 28
2970 3711 3713 28
2971 3711 3714 28
2972 3711 3715 28
2973 3716 3717 28
2974 3716 3718 28
2975 3716 3719 28
2976 3716 3720 28
2977 3721 3722 28
2978 3721 3723 28
2979 3721 3724 28
2980 3721 3725 28
2981 3726 3727 28
2982 3726 3728 28
2983 3726 3729 28
2984 3726 3730 28
2985 3731 3732 28
2986 3731 3733 28
2987 3731 3734 28
2988 3731 3735 28
2989 3736 3737 28
2990 3736 3738 28
2991 3736 3739 28
2992 3736 3740 28
2993 3741 3742 28
2994 3741 3743 28
2995 3741 3744 28
2996 3741 3745 28
2997 3746 3747 28
2998 3746 3748 28
2999 3746 3749 28
3000 3746 3750 28
3001 3751 3752 28
3002 3751 3753 28
3003 3751 3754 28
3004 3751 3755 28
3005 3756 3757 28
3006 3756 3758 28
3007 3756 3759 28
3008 3756 3760 28
3009 3761 3762 28
3010 3761 3763 28
3011 3761 3764 28
3012 3761 3765 28
3013 3766 3767 28
3014 3766 3768 28
3015 3766 3769 28
3016 3766 3770 28
3017 3771 3772 28
3018 3771 3773 28
3019 3771 3774 28
3020 3771 3775 28
3021 3776 3777 28
3022 3776 3778 28
3023 3776 3779 28
3024 3776 3780 28
3025 3781 3782 28
3026 3781 3783 28
3027 3781 3784 28
3028 3781 3785 28
3029 3786 3787 28
3030 3786 3788 28
3031 3786 3789 28
3032 3786 3790 28
3033 3791 3792 28
3034 3791 3793 28
3035 3791 3794 28
3036 3791 3795 28
3037 3796 3797 28
3038 3796 3798 28
3039 3796 3799 28
3040 3796 3800 28
3041 3801 3802 28
3042 3801 3803 28
3043 3801 3804 28
3044 3801 3805 28
3045 3806 3807 28
3046 3806 3808 28
3047 3806 3809 28
3048 3806 3810 28
3049 3811 3812 28
3050 3811 3813 28
3051 3811 3814 28
3052 3811 3815 28
3053 3816 3817 28
3054 3816 3818 28
3055 3816 3819 28
3056 3816 3820 28
3057 3821 3822 28
3058 3821 3823 28
3059 3821 3824 28
3060 3821 3825 28
3061 3826 3827 28
3062 3826 3828 28
3063 3826 3829 28
3064 3826 3830 28
3065 3831 3832 28
3066 3831 3833 28
3067 3831 3834 28
3068 3831 3835 28
3069 3836 3837 28
3070 3836 3838 28
3071 3836 3839 28
3072 3836 3840 28
3073 3841 3842 28
3074 3841 3843 28
3075 3841 3844 28
3076 3841 3845 28
3077 3846 3847 28
3078 3846 3848 28
3079 3846 3849 28
3080 3846 3850 28
3081 3851 3852 28
3082 3851 3853 28
3083 3851 3854 28
3084 3851 3855 28
3085 3856 3857 28
3086 3856 3858 28
3087 3856 3859 28
3088 3856 3860 28
3089 3861 3862 28
3090 3861 3863 28
3091 3861 3864 28
3092 3861 3865 28
3093 3866 3867 28
3094 3866 3868 28
3095 3866 3869 28
3096 3866 3870 28
3097 3871 3872 28
3098 3871 3873 28
3099 3871 3874 28
3100 3871 3875 28
3101 3876 3877 28
3102 3876 3878 28
3103 3876 3879 28
3104 3876 3880 28
3105 3881 3882 28
3106 3881 3883 28
3107 3881 3884 28
3108 3881 3885 28
3109 3886 3887 28
3110 3886 3888 28
3111 3886 3889 28
3112 3886 3890 28
3113 3891 3892 28
3114 3891 3893 28
3115 3891 3894 28
3116 3891 3895 28
3117 3896 3897 28
3118 3896 3898 28
3119 3896 3899 28
3120 3896 3900 28
3121 3901 3902 28
3122 3901 3903 28
3123 3901 3904 28
3124 3901 3905 28
3125 3906 3907 28
3126 3906 3908 28
3127 3906 3909 28
3128 3906 3910 28
3129 3911 3912 28
3130 3911 3913 28
3131 3911 3914 28
3132 3911 3915 28
3133 3916 3917 28
3134 3916 3918 28
3135 3916 3919 28
3136 3916 3920 28
3137 3921 3922 28
3138 3921 3923 28
3139 3921 3924 28
3140 3921 3925 28
3141 3926 3927 28
3142 3926 3928 28
3143 3926 3929 28
3144 3926 3930 28
3145 3931 3932 28
3146 3931 3933 28
3147 3931 3934 28
3148 3931 3935 28
3149 3936 3937 28
3150 3936 3938 28
3151 3936 3939 28
3152 3936 3940 28
3153 3941 3942 28
3154 3941 3943 28
3155 3941 3944 28
3156 3941 3945 28
3157 3946 3947 28
3158 3946 3948 28
3159 3946 3949 28
3160 3946 3950 28
3161 3951 3952 28
3162 3951 3953 28
3163 3951 3954 28
3164 3951 3955 28
3165 3956 3957 28
3166 3956 3958 28
3167 3956 3959 28
3168 3956 3960 28
3169 3961 3962 28
3170 3961 3963 28
3171 3961 3964 28
3172 3961 3965 28
3173 3966 3967 28
3174 3966 3968 28
3175 3966 3969 28
3176 3966 3970 28
3177 3971 3972 28
3178 3971 3973 28
3179 3971 3974 28
3180 3971 3975 28
3181 3976 3977 28
3182 3976 3978 28
3183 3976 3979 28
3184 3976 3980 28
3185 3981 3982 28
3186 3981 3983 28
3187 3981 3984 28
3188 3981 3985 28
3189 3986 3987 28
3190 3986 3988 28
3191 3986 3989 28
3192 3986 3990 28
3193 3991 3992 28
3194 3991 3993 28
3195 3991 3994 28
3196 3991 3995 28
3197 3996 3997 28
3198 3996 3998 28
3199 3996 3999 28
3200 3996 4000 28
3201 4001 4002 28
3202 4001 4003 28
3203 4001 4004 28
3204 4001 4005 28
3205 4006 4007 28
3206 4006 4008 28
3207 4006 4009 28
3208 4006 4010 28
3209 4011 4012 28
3210 4011 4013 28
3211 4011 4014 28
3212 4011 4015 28
3213 4016 4017 28
3214 4016 4018 28
3215 4016 4019 28
3216 4016 4020 28
3217 4021 4022 28
3218 4021 4023 28
3219 4021 4024 28
3220 4021 4025 28
3221 4026 4027 28
3222 4026 4028 28
3223 4026 4029 28
3224 4026 4030 28
3225 4031 4032 28
3226 4031 4033 28
3227 4031 4034 28
3228 4031 4035 28
3229 4036 4037 28
3230 4036 4038 28
3231 4036 4039 28
3232 4036 4040 28
3233 4041 4042 28
3234 4041 4043 28
3235 4041 4044 28
3236 4041 4045 28
3237 4046 4047 28
3238 4046 4048 28
3239 4046 4049 28
3240 4046 4050 28
3241 4051 4052 28
3242 4051 4053 28
3243 4051 4054 28
3244 4051 4055 28
3245 4056 4057 28
3246 4056 4058 28
3247 4056 4059 28
3248 4056 4060 28
3249 4061 4062 28
3250 4061 4063 28
3251 4061 4064 28
3252 4061 4065 28
3253 4066 4067 28
3254 4066 4068 28
3255 4066 4069 28
3256 4066 4070 28
3257 4071 4072 28
3258 4071 4073 28
3259 4071 4074 28
3260 4071 4075 28
3261 4076 4077 28
3262 4076 4078 28
3263 4076 4079 28
3264 4076 4080 28
3265 4081 4082 28
3266 4081 4083 28
3267 4081 4084 28
3268 4081 4085 28
3269 4086 4087 28
3270 4086 4088 28
3271 4086 4089 28
3272 4086 4090 28
3273 4091 4092 28
3274 4091 4093 28
3275 4091 4094 28
3276 4091 4095 28
3277 4096 4097 28
3278 4096 4098 28
3279 4096 4099 28
3280 4096 4100 28
3281 4101 4102 28
3282 4101 4103 28
3283 4101 4104 28
3284 4101 4105 28
3285 4106 4107 28
3286 4106 4108 28
3287 4106 4109 28
3288 4106 4110 28
3289 4111 4112 28
3290 4111 4113 28
3291 4111 4114 28
3292 4111 4115 28
3293 4116 4117 28
3294 4116 4118 28
3295 4116 4119 28
3296 4116 4120 28
3297 4121 4122 28
3298 4121 4123 28
3299 4121 4124 28
3300 4121 4125 28
3301 4126 4127 28
3302 4126 4128 28
3303 4126 4129 28
3304 4126 4130 28
3305 4131 4132 28
3306 4131 4133 28
3307 4131 4134 28
3308 4131 4135 28
3309 4136 4137 28
3310 4136 4138 28
3311 4136 4139 28
3312 4136 4140 28
3313 4141 4142 28
3314 4141 4143 28
3315 4141 4144 28
3316 4141 4145 28
3317 4146 4147 28
3318 4146 4148 28
3319 4146 4149 28
3320 4146 4150 28
3321 4151 4152 28
3322 4151 4153 28
3323 4151 4154 28
3324 4151 4155 28
3325 4156 4157 28
3326 4156 4158 28
3327 4156 4159 28
3328 4156 4160 28
3329 4161 4162 28
3330 4161 4163 28
3331 4161 4164 28
3332 4161 4165 28
3333 4166 4167 28
3334 4166 4168 28
3335 4166 4169 28
3336 4166 4170 28
3337 4171 4172 28
3338 4171 4173 28
3339 4171 4174 28
3340 4171 4175 28
3341 4176 4177 28
3342 4176 4178 28
3343 4176 4179 28
3344 4176 4180 28
3345 4181 4182 28
3346 4181 4183 28
3347 4181 4184 28
3348 4181 4185 28
3349 4186 4187 28
3350 4186 4188 28
3351 4186 4189 28
3352 4186 4190 28
3353 4191 4192 28
3354 4191 4193 28
3355 4191 4194 28
3356 4191 4195 28
3357 4196 4197 28
3358 4196 4198 28
3359 4196 4199 28
3360 4196 4200 28
3361 4201 4202 28
3362 4201 4203 28
3363 4201 4204 28
3364 4201 4205 28
3365 4206 4207 28
3366 4206 4208 28
3367 4206 4209 28
3368 4206 4210 28
3369 4211 4212 28
3370 4211 4213 28
3371 4211 4214 28
3372 4211 4215 28
3373 4216 4217 28
3374 4216 4218 28
3375 4216 4219 28
3376 4216 4220 28
3377 4221 4222 28
3378 4221 4223 28
3379 4221 4224 28
3380 4221 4225 28
3381 4226 4227 28
3382 4226 4228 28
3383 4226 4229 28
3384 4226 4230 28
3385 4231 4232 28
3386 4231 4233 28
3387 4231 4234 28
3388 4231 4235 28
3389 4236 4237 28
3390 4236 4238 28
3391 4236 4239 28
3392 4236 4240 28
3393 4241 4242 28
3394 4241 4243 28
3395 4241 4244 28
3396 4241 4245 28
3397 4246 4247 28
3398 4246 4248 28
3399 4246 4249 28
3400 4246 4250 28
3401 4251 4252 28
3402 4251 4253 28
3403 4251 4254 28
3404 4251 4255 28
3405 4256 4257 28
3406 4256 4258 28
3407 4256 4259 28
3408 4256 4260 28
3409 4261 4262 28
3410 4261 4263 28
3411 4261 4264 28
3412 4261 4265 28
3413 4266 4267 28
3414 4266 4268 28
3415 4266 4269 28
3416 4266 4270 28
3417 4271 4272 28
3418 4271 4273 28
3419 4271 4274 28
3420 4271 4275 28
3421 4276 4277 28
3422 4276 4278 28
3423 4276 4279 28
3424 4276 4280 28
3425 4281 4282 28
3426 4281 4283 28
3427 4281 4284 28
3428 4281 4285 28
3429 4286 4287 28
3430 4286 4288 28
3431 4286 4289 28
3432 4286 4290 28
3433 4291 4292 28
3434 4291 4293 28
3435 4291 4294 28
3436 4291 4295 28
3437 4296 4297 28
3438 4296 4298 28
3439 4296 4299 28
3440 4296 4300 28
3441 4301 4302 28
3442 4301 4303 28
3443 4301 4304 28
3444 4301 4305 28
3445 4306 4307 28
3446 4306 4308 28
3447 4306 4309 28
3448 4306 4310 28
3449 4311 4312 28
3450 4311 4313 28
3451 4311 4314 28
3452 4311 4315 28
3453 4316 4317 28
3454 4316 4318 28
3455 4316 4319 28
3456 4316 4320 28
3457 4321 4322 28
3458 4321 4323 28
3459 4321 4324 28
3460 4321 4325 28
3461 4326 4327 28
3462 4326 4328 28
3463 4326 4329 28
3464 4326 4330 28
3465 4331 4332 28
3466 4331 4333 28
3467 4331 4334 28
3468 4331 4335 28
3469 4336 4337 28
3470 4336 4338 28
3471 4336 4339 28
3472 4336 4340 28
3473 4341 4342 28
3474 4341 4343 28
3475 4341 4344 28
3476 4341 4345 28
3477 4346 4347 28
3478 4346 4348 28
3479 4346 4349 28
3480 4346 4350 28
3481 4351 4352 28
3482 4351 4353 28
3483 4351 4354 28
3484 4351 4355 28
3485 4356 4357 28
3486 4356 4358 28
3487 4356 4359 28
3488 4356 4360 28
3489 4361 4362 28
3490 4361 4363 28
3491 4361 4364 28
3492 4361 4365 28
3493 4366 4367 28
3494 4366 4368 28
3495 4366 4369 28
3496 4366 4370 28
3497 4371 4372 28
3498 4371 4373 28
3499 4371 4374 28
3500 4371 4375 28
3501 4376 4377 28
3502 4376 4378 28
3503 4376 4379 28
3504 4376 4380 28
3505 4381 4382 28
3506 4381 4383 28
3507 4381 4384 28
3508 4381 4385 28
3509 4386 4387 28
3510 4386 4388 28
3511 4386 4389 28
3512 4386 4390 28
3513 4391 4392 28
3514 4391 4393 28
3515 4391 4394 28
3516 4391 4395 28
3517 4396 4397 28
3518 4396 4398 28
3519 4396 4399 28
3520 4396 4400 28
3521 4401 4402 28
3522 4401 4403 28
3523 4401 4404 28
3524 4401 4405 28
3525 4406 4407 28
3526 4406 4408 28
3527 4406 4409 28
3528 4406 4410 28
3529 4411 4412 28
3530 4411 4413 28
3531 4411 4414 28
3532 4411 4415 28
3533 4416 4417 28
3534 4416 4418 28
3535 4416 4419 28
3536 4416 4420 28
3537 4421 4422 28
3538 4421 4423 28
3539 4421 4424 28
3540 4421 4425 28
3541 4426 4427 28
3542 4426 4428 28
3543 4426 4429 28
3544 4426 4430 28
3545 4431 4432 28
3546 4431 4433 28
3547 4431 4434 28
3548 4431 4435 28
3549 4436 4437 28
3550 4436 4438 28
3551 4436 4439 28
3552 4436 4440 28
3553 4441 4442 28
3554 4441 4443 28
3555 4441 4444 28
3556 4441 4445 28
3557 4446 4447 28
3558 4446 4448 28
3559 4446 4449 28
3560 4446 4450 28
3561 4451 4452 28
3562 4451 4453 28
3563 4451 4454 28
3564 4451 4455 28
3565 4456 4457 28
3566 4456 4458 28
3567 4456 4459 28
3568 4456 4460 28
3569 4461 4462 28
3570 4461 4463 28
3571 4461 4464 28
3572 4461 4465 28
3573 4466 4467 28
3574 4466 4468 28
3575 4466 4469 28
3576 4466 4470 28
3577 4471 4472 28
3578 4471 4473 28
3579 4471 4474 28
3580 4471 4475 28
3581 4476 4477 28
3582 4476 4478 28
3583 4476 4479 28
3584 4476 4480 28
3585 4481 4482 28
3586 4481 4483 28
3587 4481 4484 28
3588 4481 4485 28
3589 4486 4487 28
3590 4486 4488 28
3591 4486 4489 28
3592 4486 4490 28
3593 4491 4492 28
3594 4491 4493 28
3595 4491 4494 28
3596 4491 4495 28
3597 4496 4497 28
3598 4496 4498 28
3599 4496 4499 28
3600 4496 4500 28
3601 4501 4502 28
3602 4501 4503 28
3603 4501 4504 28
3604 4501 4505 28
3605 4506 4507 28
3606 4506 4508 28
3607 4506 4509 28
3608 4506 4510 28
3609 4511 4512 28
3610 4511 4513 28
3611 4511 4514 28
3612 4511 4515 28
3613 4516 4517 28
3614 4516 4518 28
3615 4516 4519 28
3616 4516 4520 28
3617 4521 4522 28
3618 4521 4523 28
3619 4521 4524 28
3620 4521 4525 28
3621 4526 4527 28
3622 4526 4528 28
3623 4526 4529 28
3624 4526 4530 28
3625 4531 4532 28
3626 4531 4533 28
3627 4531 4534 28
3628 4531 4535 28
3629 4536 4537 28
3630 4536 4538 28
3631 4536 4539 28
3632 4536 4540 28
3633 4541 4542 28
3634 4541 4543 28
3635 4541 4544 28
3636 4541 4545 28
3637 4546 4547 28
3638 4546 4548 28
3639 4546 4549 28
3640 4546 4550 28
3641 4551 4552 28
3642 4551 4553 28
3643 4551 4554 28
3644 4551 4555 28
3645 4556 4557 28
3646 4556 4558 28
3647 4556 4559 28
3648 4556 4560 28
3649 4561 4562 28
3650 4561 4563 28
3651 4561 4564 28
3652 4561 4565 28
3653 4566 4567 28
3654 4566 4568 28
3655 4566 4569 28
3656 4566 4570 28
3657 4571 4572 28
3658 4571 4573 28
3659 4571 4574 28
3660 4571 4575 28
3661 4576 4577 28
3662 4576 4578 28
3663 4576 4579 28
3664 4576 4580 28
3665 4581 4582 28
3666 4581 4583 28
3667 4581 4584 28
3668 4581 4585 28
3669 4586 4587 28
3670 4586 4588 28
3671 4586 4589 28
3672 4586 4590 28
3673 4591 4592 28
3674 4591 4593 28
3675 4591 4594 28
3676 4591 4595 28
3677 4596 4597 28
3678 4596 4598 28
3679 4596 4599 28
3680 4596 4600 28
3681 4601 4602 28
3682 4601 4603 28
3683 4601 4604 28
3684 4601 4605 28
3685 4606 4607 28
3686 4606 4608 28
3687 4606 4609 28
3688 4606 4610 28
3689 4611 4612 28
3690 4611 4613 28
3691 4611 4614 28
3692 4611 4615 28
3693 4616 4617 28
3694 4616 4618 28
3695 4616 4619 28
3696 4616 4620 28
3697 4621 4622 28
3698 4621 4623 28
3699 4621 4624 28
3700 4621 4625 28
3701 4626 4627 28
3702 4626 4628 28
3703 4626 4629 28
3704 4626 4630 28
3705 4631 4632 28
3706 4631 4633 28
3707 4631 4634 28
3708 4631 4635 28
3709 4636 4637 28
3710 4636 4638 28
3711 4636 4639 28
3712 4636 4640 28
3713 4641 4642 28
3714 4641 4643 28
3715 4641 4644 28
3716 4641 4645 28
3717 4646 4647 28
3718 4646 4648 28
3719 4646 4649 28
3720 4646 4650 28
3721 4651 4652 28
3722 4651 4653 28
3723 4651 4654 28
3724 4651 4655 28
3725 4656 4657 28
3726 4656 4658 28
3727 4656 4659 28
3728 4656 4660 28
3729 4661 4662 28
3730 4661 4663 28
3731 4661 4664 28
3732 4661 4665 28
3733 4666 4667 28
3734 4666 4668 28
3735 4666 4669 28
3736 4666 4670 28
3737 4671 4672 28
3738 4671 4673 28
3739 4671 4674 28
3740 4671 4675 28
3741 4676 4677 28
3742 4676 4678 28
3743 4676 4679 28
3744 4676 4680 28
3745 4681 4682 28
3746 4681 4683 28
3747 4681 4684 28
3748 4681 4685 28
3749 4686 4687 28
3750 4686 4688 28
3751 4686 4689 28
3752 4686 4690 28
3753 4691 4692 28
3754 4691 4693 28
3755 4691 4694 28
3756 4691 4695 28
3757 4696 4697 28
3758 4696 4698 28
3759 4696 4699 28
3760 4696 4700 28
3761 4701 4702 28
3762 4701 4703 28
3763 4701 4704 28
3764 4701 4705 28
3765 4706 4707 28
3766 4706 4708 28
3767 4706 4709 28
3768 4706 4710 28
3769 4711 4712 28
3770 4711 4713 28
3771 4711 4714 28
3772 4711 4715 28
3773 4716 4717 28
3774 4716 4718 28
3775 4716 4719 28
3776 4716 4720 28
3777 4721 4722 28
3778 4721 4723 28
3779 4721 4724 28
3780 4721 4725 28
3781 4726 4727 28
3782 4726 4728 28
3783 4726 4729 28
3784 4726 4730 28
3785 4731 4732 28
3786 4731 4733 28
3787 4731 4734 28
3788 4731 4735 28
3789 4736 4737 28
3790 4736 4738 28
3791 4736 4739 28
3792 4736 4740 28
3793 4741 4742 28
3794 4741 4743 28
3795 4741 4744 28
3796 4741 4745 28
3797 4746 4747 28
3798 4746 4748 28
3799 4746 4749 28
3800 4746 4750 28
3801 4751 4752 28
3802 4751 4753 28
3803 4751 4754 28
3804 4751 4755 28
3805 4756 4757 28
3806 4756 4758 28
3807 4756 4759 28
3808 4756 4760 28
3809 4761 4762 28
3810 4761 4763 28
3811 4761 4764 28
3812 4761 4765 28
3813 4766 4767 28
3814 4766 4768 28
3815 4766 4769 28
3816 4766 4770 28
3817 4771 4772 28
3818 4771 4773 28
3819 4771 4774 28
3820 4771 4775 28
3821 4776 4777 28
3822 4776 4778 28
3823 4776 4779 28
3824 4776 4780 28
3825 4781 4782 28
3826 4781 4783 28
3827 4781 4784 28
3828 4781 4785 28
3829 4786 4787 28
3830 4786 4788 28
3831 4786 4789 28
3832 4786 4790 28
3833 4791 4792 28
3834 4791 4793 28
3835 4791 4794 28
3836 4791 4795 28
3837 4796 4797 28
3838 4796 4798 28
3839 4796 4799 28
3840 4796 4800 28
3841 4801 4802 28
3842 4801 4803 28
3843 4801 4804 28
3844 4801 4805 28
3845 4806 4807 28
3846 4806 4808 28
3847 4806 4809 28
3848 4806 4810 28
3849 4811 4812 28
3850 4811 4813 28
3851 4811 4814 28
3852 4811 4815 28
3853 4816 4817 28
3854 4816 4818 28
3855 4816 4819 28
3856 4816 4820 28
3857 4821 4822 28
3858 4821 4823 28
3859 4821 4824 28
3860 4821 4825 28
3861 4826 4827 28
3862 4826 4828 28
3863 4826 4829 28
3864 4826 4830 28
3865 4831 4832 28
3866 4831 4833 28
3867 4831 4834 28
3868 4831 4835 28
3869 4836 4837 28
3870 4836 4838 28
3871 4836 4839 28
3872 4836 4840 28
3873 4841 4842 28
3874 4841 4843 28
3875 4841 4844 28
3876 4841 4845 28
3877 4846 4847 28
3878 4846 4848 28
3879 4846 4849 28
3880 4846 4850 28
3881 4851 4852 28
3882 4851 4853 28
3883 4851 4854 28
3884 4851 4855 28
3885 4856 4857 28
3886 4856 4858 28
3887 4856 4859 28
3888 4856 4860 28
3889 4861 4862 28
3890 4861 4863 28
3891 4861 4864 28
3892 4861 4865 28
3893 4866 4867 28
3894 4866 4868 28
3895 4866 4869 28
3896 4866 4870 28
3897 4871 4872 28
3898 4871 4873 28
3899 4871 4874 28
3900 4871 4875 28
3901 4876 4877 28
3902 4876 4878 28
3903 4876 4879 28
3904 4876 4880 28
3905 4881 4882 28
3906 4881 4883 28
3907 4881 4884 28
3908 4881 4885 28
3909 4886 4887 28
3910 4886 4888 28
3911 4886 4889 28
3912 4886 4890 28
3913 4891 4892 28
3914 4891 4893 28
3915 4891 4894 28
3916 4891 4895 28
3917 4896 4897 28
3918 4896 4898 28
3919 4896 4899 28
3920 4896 4900 28
3921 4901 4902 28
3922 4901 4903 28
3923 4901 4904 28
3924 4901 4905 28
3925 4906 4907 28
3926 4906 4908 28
3927 4906 4909 28
3928 4906 4910 28
3929 4911 4912 28
3930 4911 4913 28
3931 4911 4914 28
3932 4911 4915 28
3933 4916 4917 28
3934 4916 4918 28
3935 4916 4919 28
3936 4916 4920 28
3937 4921 4922 28
3938 4921 4923 28
3939 4921 4924 28
3940 4921 4925 28
3941 4926 4927 28
3942 4926 4928 28
3943 4926 4929 28
3944 4926 4930 28
3945 4931 4932 28
3946 4931 4933 28
3947 4931 4934 28
3948 4931 4935 28
3949 4936 4937 28
3950 4936 4938 28
3951 4936 4939 28
3952 4936 4940 28
3953 4941 4942 28
3954 4941 4943 28
3955 4941 4944 28
3956 4941 4945 28
3957 4946 4947 28
3958 4946 4948 28
3959 4946 4949 28
3960 4946 4950 28
3961 4951 4952 28
3962 4951 4953 28
3963 4951 4954 28
3964 4951 4955 28
3965 4956 4957 28
3966 4956 4958 28
3967 4956 4959 28
3968 4956 4960 28
3969 4961 4962 28
3970 4961 4963 28
3971 4961 4964 28
3972 4961 4965 28
3973 4966 4967 28
3974 4966 4968 28
3975 4966 4969 28
3976 4966 4970 28
3977 4971 4972 28
3978 4971 4973 28
3979 4971 4974 28
3980 4971 4975 28
3981 4976 4977 28
3982 4976 4978 28
3983 4976 4979 28
3984 4976 4980 28
3985 4981 4982 28
3986 4981 4983 28
3987 4981 4984 28
3988 4981 4985 28
3989 4986 4987 28
3990 4986 4988 28
3991 4986 4989 28
3992 4986 4990 28
3993 4991 4992 28
3994 4991 4993 28
3995 4991 4994 28
3996 4991 4995 28
3997 4996 4997 28
3998 4996 4998 28
3999 4996 4999 28
4000 4996 5000 28
4001 5001 5002 28
4002 5001 5003 28
4003 5001 5004 28
4004 5001 5005 28
4005 5006 5007 28
4006 5006 5008 28
4007 5006 5009 28
4008 5006 5010 28
4009 5011 5012 28
4010 5011 5013 28
4011 5011 5014 28
4012 5011 5015 28
4013 5016 5017 28
4014 5016 5018 28
4015 5016 5019 28
4016 5016 5020 28
4017 5021 5022 28
4018 5021 5023 28
4019 5021 5024 28
4020 5021 5025 28
4021 5026 5027 28
4022 5026 5028 28
4023 5026 5029 28
4024 5026 5030 28
4025 5031 5032 28
4026 5031 5033 28
4027 5031 5034 28
4028 5031 5035 28
4029 5036 5037 28
4030 5036 5038 28
4031 5036 5039 28
4032 5036 5040 28
4033 5041 5042 28
4034 5041 5043 28
4035 5041 5044 28
4036 5041 5045 28
4037 5046 5047 28
4038 5046 5048 28
4039 5046 5049 28
4040 5046 5050 28
4041 5051 5052 28
4042 5051 5053 28
4043 5051 5054 28
4044 5051 5055 28
4045 5056 5057 28
4046 5056 5058 28
4047 5056 5059 28
4048 5056 5060 28
4049 5061 5062 28
4050 5061 5063 28
4051 5061 5064 28
4052 5061 5065 28
4053 5066 5067 28
4054 5066 5068 28
4055 5066 5069 28
4056 5066 5070 28
4057 5071 5072 28
4058 5071 5073 28
4059 5071 5074 28
4060 5071 5075 28
4061 5076 5077 28
4062 5076 5078 28
4063 5076 5079 28
4064 5076 5080 28
4065 5081 5082 28
4066 5081 5083 28
4067 5081 5084 28
4068 5081 5085 28
4069 5086 5087 28
4070 5086 5088 28
4071 5086 5089 28
4072 5086 5090 28
4073 5091 5092 28
4074 5091 5093 28
4075 5091 5094 28
4076 5091 5095 28
4077 5096 5097 28
4078 5096 5098 28
4079 5096 5099 28
4080 5096 5100 28
4081 5101 5102 28
4082 5101 5103 28
4083 5101 5104 28
4084 5101 5105 28
4085 5106 5107 28
4086 5106 5108 28
4087 5106 5109 28
4088 5106 5110 28
4089 5111 5112 28
4090 5111 5113 28
4091 5111 5114 28
4092 5111 5115 28
4093 5116 5117 28
4094 5116 5118 28
4095 5116 5119 28
4096 5116 5120 28
4097 5121 5122 28
4098 5121 5123 28
4099 5121 5124 28
4100 5121 5125 28
4101 5126 5127 28
4102 5126 5128 28
4103 5126 5129 28
4104 5126 5130 28
4105 5131 5132 28
4106 5131 5133 28
4107 5131 5134 28
4108 5131 5135 28
4109 5136 5137 28
4110 5136 5138 28
4111 5136 5139 28
4112 5136 5140 28
4113 5141 5142 28
4114 5141 5143 28
4115 5141 5144 28
4116 5141 5145 28
4117 5146 5147 28
4118 5146 5148 28
4119 5146 5149 28
4120 5146 5150 28
4121 5151 5152 28
4122 5151 5153 28
4123 5151 5154 28
4124 5151 5155 28
4125 5156 5157 28
4126 5156 5158 28
4127 5156 5159 28
4128 5156 5160 28
4129 5161 5162 28
4130 5161 5163 28
4131 5161 5164 28
4132 5161 5165 28
4133 5166 5167 28
4134 5166 5168 28
4135 5166 5169 28
4136 5166 5170 28
4137 5171 5172 28
4138 5171 5173 28
4139 5171 5174 28
4140 5171 5175 28
4141 5176 5177 28
4142 5176 5178 28
4143 5176 5179 28
4144 5176 5180 28
4145 5181 5182 28
4146 5181 5183 28
4147 5181 5184 28
4148 5181 5185 28
4149 5186 5187 28
4150 5186 5188 28
4151 5186 5189 28
4152 5186 5190 28
4153 5191 5192 28
4154 5191 5193 28
4155 5191 5194 28
4156 5191 5195 28
4157 5196 5197 28
4158 5196 5198 28
4159 5196 5199 28
4160 5196 5200 28
4161 5201 5202 28
4162 5201 5203 28
4163 5201 5204 28
4164 5201 5205 28
4165 5206 5207 28
4166 5206 5208 28
4167 5206 5209 28
4168 5206 5210 28
4169 5211 5212 28
4170 5211 5213 28
4171 5211 5214 28
4172 5211 5215 28
4173 5216 5217 28
4174 5216 5218 28
4175 5216 5219 28
4176 5216 5220 28
4177 5221 5222 28
4178 5221 5223 28
4179 5221 5224 28
4180 5221 5225 28
4181 5226 5227 28
4182 5226 5228 28
4183 5226 5229 28
4184 5226 5230 28
4185 5231 5232 28
4186 5231 5233 28
4187 5231 5234 28
4188 5231 5235 28
4189 5236 5237 28
4190 5236 5238 28
4191 5236 5239 28
4192 5236 5240 28
4193 5241 5242 28
4194 5241 5243 28
4195 5241 5244 28
4196 5241 5245 28
4197 5246 5247 28
4198 5246 5248 28
4199 5246 5249 28
4200 5246 5250 28
4201 5251 5252 28
4202 5251 5253 28
4203 5251 5254 28
4204 5251 5255 28
4205 5256 5257 28
4206 5256 5258 28
4207 5256 5259 28
4208 5256 5260 28
4209 5261 5262 28
4210 5261 5263 28
4211 5261 5264 28
4212 5261 5265 28
4213 5266 5267 28
4214 5266 5268 28
4215 5266 5269 28
4216 5266 5270 28
4217 5271 5272 28
4218 5271 5273 28
4219 5271 5274 28
4220 5271 5275 28
4221 5276 5277 28
4222 5276 5278 28
4223 5276 5279 28
4224 5276 5280 28
4225 5281 5282 28
4226 5281 5283 28
4227 5281 5284 28
4228 5281 5285 28
4229 5286 5287 28
4230 5286 5288 28
4231 5286 5289 28
4232 5286 5290 28
4233 5291 5292 28
4234 5291 5293 28
4235 5291 5294 28
4236 5291 5295 28
4237 5296 5297 28
4238 5296 5298 28
4239 5296 5299 28
4240 5296 5300 28
4241 5301 5302 28
4242 5301 5303 28
4243 5301 5304 28
4244 5301 5305 28
4245 5306 5307 28
4246 5306 5308 28
4247 5306 5309 28
4248 5306 5310 28
4249 5311 5312 28
4250 5311 5313 28
4251 5311 5314 28
4252 5311 5315 28
4253 5316 5317 28
4254 5316 5318 28
4255 5316 5319 28
4256 5316 5320 28
4257 5321 5322 28
4258 5321 5323 28
4259 5321 5324 28
4260 5321 5325 28
4261 5326 5327 28
4262 5326 5328 28
4263 5326 5329 28
4264 5326 5330 28
4265 5331 5332 28
4266 5331 5333 28
4267 5331 5334 28
4268 5331 5335 28
4269 5336 5337 28
4270 5336 5338 28
4271 5336 5339 28
4272 5336 5340 28
4273 5341 5342 28
4274 5341 5343 28
4275 5341 5344 28
4276 5341 5345 28
4277 5346 5347 28
4278 5346 5348 28
4279 5346 5349 28
4280 5346 5350 28
4281 5351 5352 28
4282 5351 5353 28
4283 5351 5354 28
4284 5351 5355 28
4285 5356 5357 28
4286 5356 5358 28
4287 5356 5359 28
4288 5356 5360 28
4289 5361 5362 28
4290 5361 5363 28
4291 5361 5364 28
4292 5361 5365 28
4293 5366 5367 28
4294 5366 5368 28
4295 5366 5369 28
4296 5366 5370 28
4297 5371 5372 28
4298 5371 5373 28
4299 5371 5374 28
4300 5371 5375 28
4301 5376 5377 28
4302 5376 5378 28
4303 5376 5379 28
4304 5376 5380 28
4305 5381 5382 28
4306 5381 5383 28
4307 5381 5384 28
4308 5381 5385 28
4309 5386 5387 28
4310 5386 5388 28
4311 5386 5389 28
4312 5386 5390 28
4313 5391 5392 28
4314 5391 5393 28
4315 5391 5394 28
4316 5391 5395 28
4317 5396 5397 28
4318 5396 5398 28
4319 5396 5399 28
4320 5396 5400 28
4321 5401 5402 28
4322 5401 5403 28
4323 5401 5404 28
4324 5401 5405 28
4325 5406 5407 28
4326 5406 5408 28
4327 5406 5409 28
4328 5406 5410 28
4329 5411 5412 28
4330 5411 5413 28
4331 5411 5414 28
4332 5411 5415 28
4333 5416 5417 28
4334 5416 5418 28
4335 5416 5419 28
4336 5416 5420 28
4337 5421 5422 28
4338 5421 5423 28
4339 5421 5424 28
4340 5421 5425 28
4341 5426 5427 28
4342 5426 5428 28
4343 5426 5429 28
4344 5426 5430 28
4345 5431 5432 28
4346 5431 5433 28
4347 5431 5434 28
4348 5431 5435 28
4349 5436 5437 28
4350 5436 5438 28
4351 5436 5439 28
4352 5436 5440 28
4353 5441 5442 28
4354 5441 5443 28
4355 5441 5444 28
4356 5441 5445 28
4357 5446 5447 28
4358 5446 5448 28
4359 5446 5449 28
4360 5446 5450 28
4361 5451 5452 28
4362 5451 5453 28
4363 5451 5454 28
4364 5451 5455 28
4365 5456 5457 28
4366 5456 5458 28
4367 5456 5459 28
4368 5456 5460 28
4369 5461 5462 28
4370 5461 5463 28
4371 5461 5464 28
4372 5461 5465 28
4373 5466 5467 28
4374 5466 5468 28
4375 5466 5469 28
4376 5466 5470 28
4377 5471 5472 28
4378 5471 5473 28
4379 5471 5474 28
4380 5471 5475 28
4381 5476 5477 28
4382 5476 5478 28
4383 5476 5479 28
4384 5476 5480 28
4385 5481 5482 28
4386 5481 5483 28
4387 5481 5484 28
4388 5481 5485 28
4389 5486 5487 28
4390 5486 5488 28
4391 5486 5489 28
4392 5486 5490 28
4393 5491 5492 28
4394 5491 5493 28
4395 5491 5494 28
4396 5491 5495 28
4397 5496 5497 28
4398 5496 5498 28
4399 5496 5499 28
4400 5496 5500 28
4401 5501 5502 28
4402 5501 5503 28
4403 5501 5504 28
4404 5501 5505 28
4405 5506 5507 28
4406 5506 5508 28
4407 5506 5509 28
4408 5506 5510 28
4409 5511 5512 28
4410 5511 5513 28
4411 5511 5514 28
4412 5511 5515 28
4413 5516 5517 28
4414 5516 5518 28
4415 5516 5519 28
4416 5516 5520 28
4417 5521 5522 28
4418 5521 5523 28
4419 5521 5524 28
4420 5521 5525 28
4421 5526 5527 28
4422 5526 5528 28
4423 5526 5529 28
4424 5526 5530 28
4425 5531 5532 28
4426 5531 5533 28
4427 5531 5534 28
4428 5531 5535 28
4429 5536 5537 28
4430 5536 5538 28
4431 5536 5539 28
4432 5536 5540 28
4433 5541 5542 28
4434 5541 5543 28
4435 5541 5544 28
4436 5541 5545 28
4437 5546 5547 28
4438 5546 5548 28
4439 5546 5549 28
4440 5546 5550 28
4441 5551 5552 28
4442 5551 5553 28
4443 5551 5554 28
4444 5551 5555 28
4445 5556 5557 28
4446 5556 5558 28
4447 5556 5559 28
4448 5556 5560 28
4449 5561 5562 28
4450 5561 5563 28
4451 5561 5564 28
4452 5561 5565 28
4453 5566 5567 28
4454 5566 5568 28
4455 5566 5569 28
4456 5566 5570 28
4457 5571 5572 28
4458 5571 5573 28
4459 5571 5574 28
4460 5571 5575 28
4461 5576 5577 28
4462 5576 5578 28
4463 5576 5579 28
4464 5576 5580 28
4465 5581 5582 28
4466 5581 5583 28
4467 5581 5584 28
4468 5581 5585 28
4469 5586 5587 28
4470 5586 5588 28
4471 5586 5589 28
4472 5586 5590 28
4473 5591 5592 28
4474 5591 5593 28
4475 5591 5594 28
4476 5591 5595 28
4477 5596 5597 28
4478 5596 5598 28
4479 5596 5599 28
4480 5596 5600 28
4481 5601 5602 28
4482 5601 5603 28
4483 5601 5604 28
4484 5601 5605 28
4485 5606 5607 28
4486 5606 5608 28
4487 5606 5609 28
4488 5606 5610 28
4489 5611 5612 28
4490 5611 5613 28
4491 5611 5614 28
4492 5611 5615 28
4493 5616 5617 28
4494 5616 5618 28
4495 5616 5619 28
4496 5616 5620 28
4497 5621 5622 28
4498 5621 5623 28
4499 5621 5624 28
4500 5621 5625 28
4501 5626 5627 28
4502 5626 5628 28
4503 5626 5629 28
4504 5626 5630 28
4505 5631 5632 28
4506 5631 5633 28
4507 5631 5634 28
4508 5631 5635 28
4509 5636 5637 28
4510 5636 5638 28
4511 5636 5639 28
4512 5636 5640 28
4513 5641 5642 28
4514 5641 5643 28
4515 5641 5644 28
4516 5641 5645 28
4517 5646 5647 28
4518 5646 5648 28
4519 5646 5649 28
4520 5646 5650 28
4521 5651 5652 28
4522 5651 5653 28
4523 5651 5654 28
4524 5651 5655 28
4525 5656 5657 28
4526 5656 5658 28
4527 5656 5659 28
4528 5656 5660 28
4529 5661 5662 28
4530 5661 5663 28
4531 5661 5664 28
4532 5661 5665 28
4533 5666 5667 28
4534 5666 5668 28
4535 5666 5669 28
4536 5666 5670 28
4537 5671 5672 28
4538 5671 5673 28
4539 5671 5674 28
4540 5671 5675 28
4541 5676 5677 28
4542 5676 5678 28
4543 5676 5679 28
4544 5676 5680 28
4545 5681 5682 28
4546 5681 5683 28
4547 5681 5684 28
4548 5681 5685 28
4549 5686 5687 28
4550 5686 5688 28
4551 5686 5689 28
4552 5686 5690 28
4553 5691 5692 28
4554 5691 5693 28
4555 5691 5694 28
4556 5691 5695 28
4557 5696 5697 28
4558 5696 5698 28
4559 5696 5699 28
4560 5696 5700 28
4561 5701 5702 28
4562 5701 5703 28
4563 5701 5704 28
4564 5701 5705 28
4565 5706 5707 28
4566 5706 5708 28
4567 5706 5709 28
4568 5706 5710 28
4569 5711 5712 28
4570 5711 5713 28
4571 5711 5714 28
4572 5711 5715 28
4573 5716 5717 28
4574 5716 5718 28
4575 5716 5719 28
4576 5716 5720 28
4577 5721 5722 28
4578 5721 5723 28
4579 5721 5724 28
4580 5721 5725 28
4581 5726 5727 28
4582 5726 5728 28
4583 5726 5729 28
4584 5726 5730 28
4585 5731 5732 28
4586 5731 5733 28
4587 5731 5734 28
4588 5731 5735 28
4589 5736 5737 28
4590 5736 5738 28
4591 5736 5739 28
4592 5736 5740 28
4593 5741 5742 28
4594 5741 5743 28
4595 5741 5744 28
4596 5741 5745 28
4597 5746 5747 28
4598 5746 5748 28
4599 5746 5749 28
4600 5746 5750 28
4601 5751 5752 28
4602 5751 5753 28
4603 5751 5754 28
4604 5751 5755 28
4605 5756 5757 28
4606 5756 5758 28
4607 5756 5759 28
4608 5756 5760 28
4609 5761 5762 28
4610 5761 5763 28
4611 5761 5764 28
4612 5761 5765 28
4613 5766 5767 28
4614 5766 5768 28
4615 5766 5769 28
4616 5766 5770 28
4617 5771 5772 28
4618 5771 5773 28
4619 5771 5774 28
4620 5771 5775 28
4621 5776 5777 28
4622 5776 5778 28
4623 5776 5779 28
4624 5776 5780 28
4625 5781 5782 28
4626 5781 5783 28
4627 5781 5784 28
4628 5781 5785 28
4629 5786 5787 28
4630 5786 5788 28
4631 5786 5789 28
4632 5786 5790 28
4633 5791 5792 28
4634 5791 5793 28
4635 5791 5794 28
4636 5791 5795 28
4637 5796 5797 28
4638 5796 5798 28
4639 5796 5799 28
4640 5796 5800 28
4641 5801 5802 28
4642 5801 5803 28
4643 5801 5804 28
4644 5801 5805 28
4645 5806 5807 28
4646 5806 5808 28
4647 5806 5809 28
4648 5806 5810 28
4649 5811 5812 28
4650 5811 5813 28
4651 5811 5814 28
4652 5811 5815 28
4653 5816 5817 28
4654 5816 5818 28
4655 5816 5819 28
4656 5816 5820 28
4657 5821 5822 28
4658 5821 5823 28
4659 5821 5824 28
4660 5821 5825 28
4661 5826 5827 28
4662 5826 5828 28
4663 5826 5829 28
4664 5826 5830 28
4665 5831 5832 28
4666 5831 5833 28
4667 5831 5834 28
4668 5831 5835 28
4669 5836 5837 28
4670 5836 5838 28
4671 5836 5839 28
4672 5836 5840 28
4673 5841 5842 28
4674 5841 5843 28
4675 5841 5844 28
4676 5841 5845 28
4677 5846 5847 28
4678 5846 5848 28
4679 5846 5849 28
4680 5846 5850 28
4681 5851 5852 28
4682 5851 5853 28
4683 5851 5854 28
4684 5851 5855 28
4685 5856 5857 28
4686 5856 5858 28
4687 5856 5859 28
4688 5856 5860 28
4689 5861 5862 28
4690 5861 5863 28
4691 5861 5864 28
4692 5861 5865 28
4693 5866 5867 28
4694 5866 5868 28
4695 5866 5869 28
4696 5866 5870 28
4697 5871 5872 28
4698 5871 5873 28
4699 5871 5874 28
4700 5871 5875 28
4701 5876 5877 28
4702 5876 5878 28
4703 5876 5879 28
4704 5876 5880 28
4705 5881 5882 28
4706 5881 5883 28
4707 5881 5884 28
4708 5881 5885 28
4709 5886 5887 28
4710 5886 5888 28
4711 5886 5889 28
4712 5886 5890 28
4713 5891 5892 28
4714 5891 5893 28
4715 5891 5894 28
4716 5891 5895 28
4717 5896 5897 28
4718 5896 5898 28
4719 5896 5899 28
4720 5896 5900 28
4721 5901 5902 28
4722 5901 5903 28
4723 5901 5904 28
4724 5901 5905 28
4725 5906 5907 28
4726 5906 5908 28
4727 5906 5909 28
4728 5906 5910 28
4729 5911 5912 28
4730 5911 5913 28
4731 5911 5914 28
4732 5911 5915 28
4733 5916 5917 28
4734 5916 5918 28
4735 5916 5919 28
4736 5916 5920 28
4737 5921 5922 28
4738 5921 5923 28
4739 5921 5924 28
4740 5921 5925 28
4741 5926 5927 28
4742 5926 5928 28
4743 5926 5929 28
4744 5926 5930 28
4745 5931 5932 28
4746 5931 5933 28
4747 5931 5934 28
4748 5931 5935 28
4749 5936 5937 28
4750 5936 5938 28
4751 5936 5939 28
4752 5936 5940 28
4753 5941 5942 28
4754 5941 5943 28
4755 5941 5944 28
4756 5941 5945 28
4757 5946 5947 28
4758 5946 5948 28
4759 5946 5949 28
4760 5946 5950 28
4761 5951 5952 28
4762 5951 5953 28
4763 5951 5954 28
4764 5951 5955 28
4765 5956 5957 28
4766 5956 5958 28
4767 5956 5959 28
4768 5956 5960 28
4769 5961 5962 28
4770 5961 5963 28
4771 5961 5964 28
4772 5961 5965 28
4773 5966 5967 28
4774 5966 5968 28
4775 5966 5969 28
4776 5966 5970 28
4777 5971 5972 28
4778 5971 5973 28
4779 5971 5974 28
4780 5971 5975 28
4781 5976 5977 28
4782 5976 5978 28
4783 5976 5979 28
4784 5976 5980 28
4785 5981 5982 28
4786 5981 5983 28
4787 5981 5984 28
4788 5981 5985 28
4789 5986 5987 28
4790 5986 5988 28
4791 5986 5989 28
4792 5986 5990 28
4793 5991 5992 28
4794 5991 5993 28
4795 5991 5994 28
4796 5991 5995 28
4797 5996 5997 28
4798 5996 5998 28
4799 5996 5999 28
4800 5996 6000 28
4801 6001 6002 28
4802 6001 6003 28
4803 6001 6004 28
4804 6001 6005 28
4805 6006 6007 28
4806 6006 6008 28
4807 6006 6009 28
4808 6006 6010 28
4809 6011 6012 28
4810 6011 6013 28
4811 6011 6014 28
4812 6011 6015 28
4813 6016 6017 28
4814 6016 6018 28
4815 6016 6019 28
4816 6016 6020 28
4817 6021 6022 28
4818 6021 6023 28
4819 6021 6024 28
4820 6021 6025 28
4821 6026 6027 28
4822 6026 6028 28
4823 6026 6029 28
4824 6026 6030 28
4825 6031 6032 28
4826 6031 6033 28
4827 6031 6034 28
4828 6031 6035 28
4829 6036 6037 28
4830 6036 6038 28
4831 6036 6039 28
4832 6036 6040 28
4833 6041 6042 28
4834 6041 6043 28
4835 6041 6044 28
4836 6041 6045 28
4837 6046 6047 28
4838 6046 6048 28
4839 6046 6049 28
4840 6046 6050 28
4841 6051 6052 28
4842 6051 6053 28
4843 6051 6054 28
4844 6051 6055 28
4845 6056 6057 28
4846 6056 6058 28
4847 6056 6059 28
4848 6056 6060 28
4849 6061 6062 28
4850 6061 6063 28
4851 6061 6064 28
4852 6061 6065 28
4853 6066 6067 28
4854 6066 6068 28
4855 6066 6069 28
4856 6066 6070 28
4857 6071 6072 28
4858 6071 6073 28
4859 6071 6074 28
4860 6071 6075 28
4861 6076 6077 28
4862 6076 6078 28
4863 6076 6079 28
4864 6076 6080 28
4865 6081 6082 28
4866 6081 6083 28
4867 6081 6084 28
4868 6081 6085 28
4869 6086 6087 28
4870 6086 6088 28
4871 6086 6089 28
4872 6086 6090 28
4873 6091 6092 28
4874 6091 6093 28
4875 6091 6094 28
4876 6091 6095 28
4877 6096 6097 28
4878 6096 6098 28
4879 6096 6099 28
4880 6096 6100 28
4881 6101 6102 28
4882 6101 6103 28
4883 6101 6104 28
4884 6101 6105 28
4885 6106 6107 28
4886 6106 6108 28
4887 6106 6109 28
4888 6106 6110 28
4889 6111 6112 28
4890 6111 6113 28
4891 6111 6114 28
4892 6111 6115 28
4893 6116 6117 28
4894 6116 6118 28
4895 6116 6119 28
4896 6116 6120 28
4897 6121 6122 28
4898 6121 6123 28
4899 6121 6124 28
4900 6121 6125 28
4901 6126 6127 28
4902 6126 6128 28
4903 6126 6129 28
4904 6126 6130 28
4905 6131 6132 28
4906 6131 6133 28
4907 6131 6134 28
4908 6131 6135 28
4909 6136 6137 28
4910 6136 6138 28
4911 6136 6139 28
4912 6136 6140 28
4913 6141 6142 28
4914 6141 6143 28
4915 6141 6144 28
4916 6141 6145 28
4917 6146 6147 28
4918 6146 6148 28
4919 6146 6149 28
4920 6146 6150 28
4921 6151 6152 28
4922 6151 6153 28
4923 6151 6154 28
4924 6151 6155 28
4925 6156 6157 28
4926 6156 6158 28
4927 6156 6159 28
4928 6156 6160 28
4929 6161 6162 28
4930 6161 6163 28
4931 6161 6164 28
4932 6161 6165 28
4933 6166 6167 28
4934 6166 6168 28
4935 6166 6169 28
4936 6166 6170 28
4937 6171 6172 28
4938 6171 6173 28
4939 6171 6174 28
4940 6171 6175 28
4941 6176 6177 28
4942 6176 6178 28
4943 6176 6179 28
4944 6176 6180 28
4945 6181 6182 28
4946 6181 6183 28
4947 6181 6184 28
4948 6181 6185 28
4949 6186 6187 28
4950 6186 6188 28
4951 6186 6189 28
4952 6186 6190 28
4953 6191 6192 28
4954 6191 6193 28
4955 6191 6194 28
4956 6191 6195 28
4957 6196 6197 28
4958 6196 6198 28
4959 6196 6199 28
4960 6196 6200 28
4961 6201 6202 28
4962 6201 6203 28
4963 6201 6204 28
4964 6201 6205 28
4965 6206 6207 28
4966 6206 6208 28
4967 6206 6209 28
4968 6206 6210 28
4969 6211 6212 28
4970 6211 6213 28
4971 6211 6214 28
4972 6211 6215 28
4973 6216 6217 28
4974 6216 6218 28
4975 6216 6219 28
4976 6216 6220 28
4977 6221 6222 28
4978 6221 6223 28
4979 6221 6224 28
4980 6221 6225 28
4981 6226 6227 28
4982 6226 6228 28
4983 6226 6229 28
4984 6226 6230 28
4985 6231 6232 28
4986 6231 6233 28
4987 6231 6234 28
4988 6231 6235 28
4989 6236 6237 28
4990 6236 6238 28
4991 6236 6239 28
4992 6236 6240 28
4993 6241 6242 28
4994 6241 6243 28
4995 6241 6244 28
4996 6241 6245 28
4997 6246 6247 28
4998 6246 6248 28
4999 6246 6249 28
5000 6246 6250 28
5001 6251 6252 28
5002 6251 6253 28
5003 6251 6254 28
5004 6251 6255 28
5005 6256 6257 28
5006 6256 6258 28
5007 6256 6259 28
5008 6256 6260 28
5009 6261 6262 28
5010 6261 6263 28
5011 6261 6264 28
5012 6261 6265 28
5013 6266 6267 28
5014 6266 6268 28
5015 6266 6269 28
5016 6266 6270 28
5017 6271 6272 28
5018 6271 6273 28
5019 6271 6274 28
5020 6271 6275 28
5021 6276 6277 28
5022 6276 6278 28
5023 6276 6279 28
5024 6276 6280 28
5025 6281 6282 28
5026 6281 6283 28
5027 6281 6284 28
5028 6281 6285 28
5029 6286 6287 28
5030 6286 6288 28
5031 6286 6289 28
5032 6286 6290 28
5033 6291 6292 28
5034 6291 6293 28
5035 6291 6294 28
5036 6291 6295 28
5037 6296 6297 28
5038 6296 6298 28
5039 6296 6299 28
5040 6296 6300 28
5041 6301 6302 28
5042 6301 6303 28
5043 6301 6304 28
5044 6301 6305 28
5045 6306 6307 28
5046 6306 6308 28
5047 6306 6309 28
5048 6306 6310 28
5049 6311 6312 28
5050 6311 6313 28
5051 6311 6314 28
5052 6311 6315 28
5053 6316 6317 28
5054 6316 6318 28
5055 6316 6319 28
5056 6316 6320 28
5057 6321 6322 28
5058 6321 6323 28
5059 6321 6324 28
5060 6321 6325 28
5061 6326 6327 28
5062 6326 6328 28
5063 6326 6329 28
5064 6326 6330 28
5065 6331 6332 28
5066 6331 6333 28
5067 6331 6334 28
5068 6331 6335 28
5069 6336 6337 28
5070 6336 6338 28
5071 6336 6339 28
5072 6336 6340 28
5073 6341 6342 28
5074 6341 6343 28
5075 6341 6344 28
5076 6341 6345 28
5077 6346 6347 28
5078 6346 6348 28
5079 6346 6349 28
5080 6346 6350 28
5081 6351 6352 28
5082 6351 6353 28
5083 6351 6354 28
5084 6351 6355 28
5085 6356 6357 28
5086 6356 6358 28
5087 6356 6359 28
5088 6356 6360 28
5089 6361 6362 28
5090 6361 6363 28
5091 6361 6364 28
5092 6361 6365 28
5093 6366 6367 28
5094 6366 6368 28
5095 6366 6369 28
5096 6366 6370 28
5097 6371 6372 28
5098 6371 6373 28
5099 6371 6374 28
5100 6371 6375 28
5101 6376 6377 28
5102 6376 6378 28
5103 6376 6379 28
5104 6376 6380 28
5105 6381 6382 28
5106 6381 6383 28
5107 6381 6384 28
5108 6381 6385 28
5109 6386 6387 28
5110 6386 6388 28
5111 6386 6389 28
5112 6386 6390 28
5113 6391 6392 28
5114 6391 6393 28
5115 6391 6394 28
5116 6391 6395 28
5117 6396 6397 28
5118 6396 6398 28
5119 6396 6399 28
5120 6396 6400 28
5121 6401 6402 28
5122 6401 6403 28
5123 6401 6404 28
5124 6401 6405 28
5125 6406 6407 28
5126 6406 6408 28
5127 6406 6409 28
5128 6406 6410 28
5129 6411 6412 28
5130 6411 6413 28
5131 6411 6414 28
5132 6411 6415 28
5133 6416 6417 28
5134 6416 6418 28
5135 6416 6419 28
5136 6416 6420 28
5137 6421 6422 28
5138 6421 6423 28
5139 6421 6424 28
5140 6421 6425 28
5141 6426 6427 28
5142 6426 6428 28
5143 6426 6429 28
5144 6426 6430 28
5145 6431 6432 28
5146 6431 6433 28
5147 6431 6434 28
5148 6431 6435 28
5149 6436 6437 28
5150 6436 6438 28
5151 6436 6439 28
5152 6436 6440 28
5153 6441 6442 28
5154 6441 6443 28
5155 6441 6444 28
5156 6441 6445 28
5157 6446 6447 28
5158 6446 6448 28
5159 6446 6449 28
5160 6446 6450 28
5161 6451 6452 28
5162 6451 6453 28
5163 6451 6454 28
5164 6451 6455 28
5165 6456 6457 28
5166 6456 6458 28
5167 6456 6459 28
5168 6456 6460 28
5169 6461 6462 28
5170 6461 6463 28
5171 6461 6464 28
5172 6461 6465 28
5173 6466 6467 28
5174 6466 6468 28
5175 6466 6469 28
5176 6466 6470 28
5177 6471 6472 28
5178 6471 6473 28
5179 6471 6474 28
5180 6471 6475 28
5181 6476 6477 28
5182 6476 6478 28
5183 6476 6479 28
5184 6476 6480 28
5185 6481 6482 28
5186 6481 6483 28
5187 6481 6484 28
5188 6481 6485 28
5189 6486 6487 28
5190 6486 6488 28
5191 6486 6489 28
5192 6486 6490 28
5193 6491 6492 28
5194 6491 6493 28
5195 6491 6494 28
5196 6491 6495 28
5197 6496 6497 28
5198 6496 6498 28
5199 6496 6499 28
5200 6496 6500 28
5201 6501 6502 28
5202 6501 6503 28
5203 6501 6504 28
5204 6501 6505 28
5205 6506 6507 28
5206 6506 6508 28
5207 6506 6509 28
5208 6506 6510 28
5209 6511 6512 28
5210 6511 6513 28
5211 6511 6514 28
5212 6511 6515 28
5213 6516 6517 28
5214 6516 6518 28
5215 6516 6519 28
5216 6516 6520 28
5217 6521 6522 28
5218 6521 6523 28
5219 6521 6524 28
5220 6521 6525 28
5221 6526 6527 28
5222 6526 6528 28
5223 6526 6529 28
5224 6526 6530 28
5225 6531 6532 28
5226 6531 6533 28
5227 6531 6534 28
5228 6531 6535 28
5229 6536 6537 28
5230 6536 6538 28
5231 6536 6539 28
5232 6536 6540 28
5233 6541 6542 28
5234 6541 6543 28
5235 6541 6544 28
5236 6541 6545 28
5237 6546 6547 28
5238 6546 6548 28
5239 6546 6549 28
5240 6546 6550 28
5241 6551 6552 28
5242 6551 6553 28
5243 6551 6554 28
5244 6551 6555 28
5245 6556 6557 28
5246 6556 6558 28
5247 6556 6559 28
5248 6556 6560 28
5249 6561 6562 28
5250 6561 6563 28
5251 6561 6564 28
5252 6561 6565 28
5253 6566 6567 28
5254 6566 6568 28
5255 6566 6569 28
5256 6566 6570 28
5257 6571 6572 28
5258 6571 6573 28
5259 6571 6574 28
5260 6571 6575 28
5261 6576 6577 28
5262 6576 6578 28
5263 6576 6579 28
5264 6576 6580 28
5265 6581 6582 28
5266 6581 6583 28
5267 6581 6584 28
5268 6581 6585 28
5269 6586 6587 28
5270 6586 6588 28
5271 6586 6589 28
5272 6586 6590 28
5273 6591 6592 28
5274 6591 6593 28
5275 6591 6594 28
5276 6591 6595 28
5277 6596 6597 28
5278 6596 6598 28
5279 6596 6599 28
5280 6596 6600 28
5281 6601 6602 28
5282 6601 6603 28
5283 6601 6604 28
5284 6601 6605 28
5285 6606 6607 28
5286 6606 6608 28
5287 6606 6609 28
5288 6606 6610 28
5289 6611 6612 28
5290 6611 6613 28
5291 6611 6614 28
5292 6611 6615 28
5293 6616 6617 28
5294 6616 6618 28
5295 6616 6619 28
5296 6616 6620 28
5297 6621 6622 28
5298 6621 6623 28
5299 6621 6624 28
5300 6621 6625 28
5301 6626 6627 28
5302 6626 6628 28
5303 6626 6629 28
5304 6626 6630 28
5305 6631 6632 28
5306 6631 6633 28
5307 6631 6634 28
5308 6631 6635 28
5309 6636 6637 28
5310 6636 6638 28
5311 6636 6639 28
5312 6636 6640 28
5313 6641 6642 28
5314 6641 6643 28
5315 6641 6644 28
5316 6641 6645 28
5317 6646 6647 28
5318 6646 6648 28
5319 6646 6649 28
5320 6646 6650 28
5321 6651 6652 28
5322 6651 6653 28
5323 6651 6654 28
5324 6651 6655 28
5325 6656 6657 28
5326 6656 6658 28
5327 6656 6659 28
5328 6656 6660 28
5329 6661 6662 28
5330 6661 6663 28
5331 6661 6664 28
5332 6661 6665 28
5333 6666 6667 28
5334 6666 6668 28
5335 6666 6669 28
5336 6666 6670 28
5337 6671 6672 28
5338 6671 6673 28
5339 6671 6674 28
5340 6671 6675 28
5341 6676 6677 28
5342 6676 6678 28
5343 6676 6679 28
5344 6676 6680 28
5345 6681 6682 28
5346 6681 6683 28
5347 6681 6684 28
5348 6681 6685 28
5349 6686 6687 28
5350 6686 6688 28
5351 6686 6689 28
5352 6686 6690 28
5353 6691 6692 28
5354 6691 6693 28
5355 6691 6694 28
5356 6691 6695 28
5357 6696 6697 28
5358 6696 6698 28
5359 6696 6699 28
5360 6696 6700 28
5361 6701 6702 28
5362 6701 6703 28
5363 6701 6704 28
5364 6701 6705 28
5365 6706 6707 28
5366 6706 6708 28
5367 6706 6709 28
5368 6706 6710 28
5369 6711 6712 28
5370 6711 6713 28
5371 6711 6714 28
5372 6711 6715 28
5373 6716 6717 28
5374 6716 6718 28
5375 6716 6719 28
5376 6716 6720 28
5377 6721 6722 28
5378 6721 6723 28
5379 6721 6724 28
5380 6721 6725 28
5381 6726 6727 28
5382 6726 6728 28
5383 6726 6729 28
5384 6726 6730 28
5385 6731 6732 28
5386 6731 6733 28
5387 6731 6734 28
5388 6731 6735 28
5389 6736 6737 28
5390 6736 6738 28
5391 6736 6739 28
5392 6736 6740 28
5393 6741 6742 28
5394 6741 6743 28
5395 6741 6744 28
5396 6741 6745 28
5397 6746 6747 28
5398 6746 6748 28
5399 6746 6749 28
5400 6746 6750 28
5401 6751 6752 28
5402 6751 6753 28
5403 6751 6754 28
5404 6751 6755 28
5405 6756 6757 28
5406 6756 6758 28
5407 6756 6759 28
5408 6756 6760 28
5409 6761 6762 28
5410 6761 6763 28
5411 6761 6764 28
5412 6761 6765 28
5413 6766 6767 28
5414 6766 6768 28
5415 6766 6769 28
5416 6766 6770 28
5417 6771 6772 28
5418 6771 6773 28
5419 6771 6774 28
5420 6771 6775 28
5421 6776 6777 28
5422 6776 6778 28
5423 6776 6779 28
5424 6776 6780 28
5425 6781 6782 28
5426 6781 6783 28
5427 6781 6784 28
5428 6781 6785 28
5429 6786 6787 28
5430 6786 6788 28
5431 6786 6789 28
5432 6786 6790 28
5433 6791 6792 28
5434 6791 6793 28
5435 6791 6794 28
5436 6791 6795 28
5437 6796 6797 28
5438 6796 6798 28
5439 6796 6799 28
5440 6796 6800 28
5441 6801 6802 28
5442 6801 6803 28
5443 6801 6804 28
5444 6801 6805 28
5445 6806 6807 28
5446 6806 6808 28
5447 6806 6809 28
5448 6806 6810 28
5449 6811 6812 28
5450 6811 6813 28
5451 6811 6814 28
5452 6811 6815 28
5453 6816 6817 28
5454 6816 6818 28
5455 6816 6819 28
5456 6816 6820 28
5457 6821 6822 28
5458 6821 6823 28
5459 6821 6824 28
5460 6821 6825 28
5461 6826 6827 28
5462 6826 6828 28
5463 6826 6829 28
5464 6826 6830 28
5465 6831 6832 28
5466 6831 6833 28
5467 6831 6834 28
5468 6831 6835 28
5469 6836 6837 28
5470 6836 6838 28
5471 6836 6839 28
5472 6836 6840 28
5473 6841 6842 28
5474 6841 6843 28
5475 6841 6844 28
5476 6841 6845 28
5477 6846 6847 28
5478 6846 6848 28
5479 6846 6849 28
5480 6846 6850 28
5481 6851 6852 28
5482 6851 6853 28
5483 6851 6854 28
5484 6851 6855 28
5485 6856 6857 28
5486 6856 6858 28
5487 6856 6859 28
5488 6856 6860 28
5489 6861 6862 28
5490 6861 6863 28
5491 6861 6864 28
5492 6861 6865 28
5493 6866 6867 28
5494 6866 6868 28
5495 6866 6869 28
5496 6866 6870 28
5497 6871 6872 28
5498 6871 6873 28
5499 6871 6874 28
5500 6871 6875 28
5501 6876 6877 28
5502 6876 6878 28
5503 6876 6879 28
5504 6876 6880 28
5505 6881 6882 28
5506 6881 6883 28
5507 6881 6884 28
5508 6881 6885 28
5509 6886 6887 28
5510 6886 6888 28
5511 6886 6889 28
5512 6886 6890 28
5513 6891 6892 28
5514 6891 6893 28
5515 6891 6894 28
5516 6891 6895 28
5517 6896 6897 28
5518 6896 6898 28
5519 6896 6899 28
5520 6896 6900 28
5521 6901 6902 28
5522 6901 6903 28
5523 6901 6904 28
5524 6901 6905 28
5525 6906 6907 28
5526 6906 6908 28
5527 6906 6909 28
5528 6906 6910 28
5529 6911 6912 28
5530 6911 6913 28
5531 6911 6914 28
5532 6911 6915 28
5533 6916 6917 28
5534 6916 6918 28
5535 6916 6919 28
5536 6916 6920 28
5537 6921 6922 28
5538 6921 6923 28
5539 6921 6924 28
5540 6921 6925 28
5541 6926 6927 28
5542 6926 6928 28
5543 6926 6929 28
5544 6926 6930 28
5545 6931 6932 28
5546 6931 6933 28
5547 6931 6934 28
5548 6931 6935 28
5549 6936 6937 28
5550 6936 6938 28
5551 6936 6939 28
5552 6936 6940 28
5553 6941 6942 28
5554 6941 6943 28
5555 6941 6944 28
5556 6941 6945 28
5557 6946 6947 28
5558 6946 6948 28
5559 6946 6949 28
5560 6946 6950 28
5561 6951 6952 28
5562 6951 6953 28
5563 6951 6954 28
5564 6951 6955 28
5565 6956 6957 28
5566 6956 6958 28
5567 6956 6959 28
5568 6956 6960 28
5569 6961 6962 28
5570 6961 6963 28
5571 6961 6964 28
5572 6961 6965 28
5573 6966 6967 28
5574 6966 6968 28
5575 6966 6969 28
5576 6966 6970 28
5577 6971 6972 28
5578 6971 6973 28
5579 6971 6974 28
5580 6971 6975 28
5581 6976 6977 28
5582 6976 6978 28
5583 6976 6979 28
5584 6976 6980 28
5585 6981 6982 28
5586 6981 6983 28
5587 6981 6984 28
5588 6981 6985 28
5589 6986 6987 28
5590 6986 6988 28
5591 6986 6989 28
5592 6986 6990 28
5593 6991 6992 28
5594 6991 6993 28
5595 6991 6994 28
5596 6991 6995 28
5597 6996 6997 28
5598 6996 6998 28
5599 6996 6999 28
5600 6996 7000 28
5601 7001 7002 28
5602 7001 7003 28
5603 7001 7004 28
5604 7001 7005 28
5605 7006 7007 28
5606 7006 7008 28
5607 7006 7009 28
5608 7006 7010 28
5609 7011 7012 28
5610 7011 7013 28
5611 7011 7014 28
5612 7011 7015 28
5613 7016 7017 28
5614 7016 7018 28
5615 7016 7019 28
5616 7016 7020 28
5617 7021 7022 28
5618 7021 7023 28
5619 7021 7024 28
5620 7021 7025 28
5621 7026 7027 28
5622 7026 7028 28
5623 7026 7029 28
5624 7026 7030 28
5625 7031 7032 28
5626 7031 7033 28
5627 7031 7034 28
5628 7031 7035 28
5629 7036 7037 28
5630 7036 7038 28
5631 7036 7039 28
5632 7036 7040 28
5633 7041 7042 28
5634 7041 7043 28
5635 7041 7044 28
5636 7041 7045 28
5637 7046 7047 28
5638 7046 7048 28
5639 7046 7049 28
5640 7046 7050 28
5641 7051 7052 28
5642 7051 7053 28
5643 7051 7054 28
5644 7051 7055 28
5645 7056 7057 28
5646 7056 7058 28
5647 7056 7059 28
5648 7056 7060 28
5649 7061 7062 28
5650 7061 7063 28
5651 7061 7064 28
5652 7061 7065 28
5653 7066 7067 28
5654 7066 7068 28
5655 7066 7069 28
5656 7066 7070 28
5657 7071 7072 28
5658 7071 7073 28
5659 7071 7074 28
5660 7071 7075 28
5661 7076 7077 28
5662 7076 7078 28
5663 7076 7079 28
5664 7076 7080 28
5665 7081 7082 28
5666 7081 7083 28
5667 7081 7084 28
5668 7081 7085 28
5669 7086 7087 28
5670 7086 7088 28
5671 7086 7089 28
5672 7086 7090 28
5673 7091 7092 28
5674 7091 7093 28
5675 7091 7094 28
5676 7091 7095 28
5677 7096 7097 28
5678 7096 7098 28
5679 7096 7099 28
5680 7096 7100 28
5681 7101 7102 28
5682 7101 7103 28
5683 7101 7104 28
5684 7101 7105 28
5685 7106 7107 28
5686 7106 7108 28
5687 7106 7109 28
5688 7106 7110 28
5689 7111 7112 28
5690 7111 7113 28
5691 7111 7114 28
5692 7111 7115 28
5693 7116 7117 28
5694 7116 7118 28
5695 7116 7119 28
5696 7116 7120 28
5697 7121 7122 28
5698 7121 7123 28
5699 7121 7124 28
5700 7121 7125 28
5701 7126 7127 28
5702 7126 7128 28
5703 7126 7129 28
5704 7126 7130 28
5705 7131 7132 28
5706 7131 7133 28
5707 7131 7134 28
5708 7131 7135 28
5709 7136 7137 28
5710 7136 7138 28
5711 7136 7139 28
5712 7136 7140 28
5713 7141 7142 28
5714 7141 7143 28
5715 7141 7144 28
5716 7141 7145 28
5717 7146 7147 28
5718 7146 7148 28
5719 7146 7149 28
5720 7146 7150 28
5721 7151 7152 28
5722 7151 7153 28
5723 7151 7154 28
5724 7151 7155 28
5725 7156 7157 28
5726 7156 7158 28
5727 7156 7159 28
5728 7156 7160 28
5729 7161 7162 28
5730 7161 7163 28
5731 7161 7164 28
5732 7161 7165 28
5733 7166 7167 28
5734 7166 7168 28
5735 7166 7169 28
5736 7166 7170 28
5737 7171 7172 28
5738 7171 7173 28
5739 7171 7174 28
5740 7171 7175 28
5741 7176 7177 28
5742 7176 7178 28
5743 7176 7179 28
5744 7176 7180 28
5745 7181 7182 28
5746 7181 7183 28
5747 7181 7184 28
5748 7181 7185 28
5749 7186 7187 28
5750 7186 7188 28
5751 7186 7189 28
5752 7186 7190 28
5753 7191 7192 28
5754 7191 7193 28
5755 7191 7194 28
5756 7191 7195 28
5757 7196 7197 28
5758 7196 7198 28
5759 7196 7199 28
5760 7196 7200 28
5761 7201 7202 28
5762 7201 7203 28
5763 7201 7204 28
5764 7201 7205 28
5765 7206 7207 28
5766 7206 7208 28
5767 7206 7209 28
5768 7206 7210 28
5769 7211 7212 28
5770 7211 7213 28
5771 7211 7214 28
5772 7211 7215 28
5773 7216 7217 28
5774 7216 7218 28
5775 7216 7219 28
5776 7216 7220 28
5777 7221 7222 28
5778 7221 7223 28
5779 7221 7224 28
5780 7221 7225 28
5781 7226 7227 28
5782 7226 7228 28
5783 7226 7229 28
5784 7226 7230 28
5785 7231 7232 28
5786 7231 7233 28
5787 7231 7234 28
5788 7231 7235 28
5789 7236 7237 28
5790 7236 7238 28
5791 7236 7239 28
5792 7236 7240 28
5793 7241 7242 28
5794 7241 7243 28
5795 7241 7244 28
5796 7241 7245 28
5797 7246 7247 28
5798 7246 7248 28
5799 7246 7249 28
5800 7246 7250 28
5801 7251 7252 28
5802 7251 7253 28
5803 7251 7254 28
5804 7251 7255 28
5805 7256 7257 28
5806 7256 7258 28
5807 7256 7259 28
5808 7256 7260 28
5809 7261 7262 28
5810 7261 7263 28
5811 7261 7264 28
5812 7261 7265 28
5813 7266 7267 28
5814 7266 7268 28
5815 7266 7269 28
5816 7266 7270 28
5817 7271 7272 28
5818 7271 7273 28
5819 7271 7274 28
5820 7271 7275 28
5821 7276 7277 28
5822 7276 7278 28
5823 7276 7279 28
5824 7276 7280 28
5825 7281 7282 28
5826 7281 7283 28
5827 7281 7284 28
5828 7281 7285 28
5829 7286 7287 28
5830 7286 7288 28
5831 7286 7289 28
5832 7286 7290 28
5833 7291 7292 28
5834 7291 7293 28
5835 7291 7294 28
5836 7291 7295 28
5837 7296 7297 28
5838 7296 7298 28
5839 7296 7299 28
5840 7296 7300 28
5841 7301 7302 28
5842 7301 7303 28
5843 7301 7304 28
5844 7301 7305 28
5845 7306 7307 28
5846 7306 7308 28
5847 7306 7309 28
5848 7306 7310 28
5849 7311 7312 28
5850 7311 7313 28
5851 7311 7314 28
5852 7311 7315 28
5853 7316 7317 28
5854 7316 7318 28
5855 7316 7319 28
5856 7316 7320 28
5857 7321 7322 28
5858 7321 7323 28
5859 7321 7324 28
5860 7321 7325 28
5861 7326 7327 28
5862 7326 7328 28
5863 7326 7329 28
5864 7326 7330 28
5865 7331 7332 28
5866 7331 7333 28
5867 7331 7334 28
5868 7331 7335 28
5869 7336 7337 28
5870 7336 7338 28
5871 7336 7339 28
5872 7336 7340 28
5873 7341 7342 28
5874 7341 7343 28
5875 7341 7344 28
5876 7341 7345 28
5877 7346 7347 28
5878 7346 7348 28
5879 7346 7349 28
5880 7346 7350 28
5881 7351 7352 28
5882 7351 7353 28
5883 7351 7354 28
5884 7351 7355 28
5885 7356 7357 28
5886 7356 7358 28
5887 7356 7359 28
5888 7356 7360 28
5889 7361 7362 28
5890 7361 7363 28
5891 7361 7364 28
5892 7361 7365 28
5893 7366 7367 28
5894 7366 7368 28
5895 7366 7369 28
5896 7366 7370 28
5897 7371 7372 28
5898 7371 7373 28
5899 7371 7374 28
5900 7371 7375 28
5901 7376 7377 28
5902 7376 7378 28
5903 7376 7379 28
5904 7376 7380 28
5905 7381 7382 28
5906 7381 7383 28
5907 7381 7384 28
5908 7381 7385 28
5909 7386 7387 28
5910 7386 7388 28
5911 7386 7389 28
5912 7386 7390 28
5913 7391 7392 28
5914 7391 7393 28
5915 7391 7394 28
5916 7391 7395 28
5917 7396 7397 28
5918 7396 7398 28
5919 7396 7399 28
5920 7396 7400 28
5921 7401 7402 28
5922 7401 7403 28
5923 7401 7404 28
5924 7401 7405 28
5925 7406 7407 28
5926 7406 7408 28
5927 7406 7409 28
5928 7406 7410 28
5929 7411 7412 28
5930 7411 7413 28
5931 7411 7414 28
5932 7411 7415 28
5933 7416 7417 28
5934 7416 7418 28
5935 7416 7419 28
5936 7416 7420 28
5937 7421 7422 28
5938 7421 7423 28
5939 7421 7424 28
5940 7421 7425 28
5941 7426 7427 28
5942 7426 7428 28
5943 7426 7429 28
5944 7426 7430 28
5945 7431 7432 28
5946 7431 7433 28
5947 7431 7434 28
5948 7431 7435 28
5949 7436 7437 28
5950 7436 7438 28
5951 7436 7439 28
5952 7436 7440 28
5953 7441 7442 28
5954 7441 7443 28
5955 7441 7444 28
5956 7441 7445 28
5957 7446 7447 28
5958 7446 7448 28
5959 7446 7449 28
5960 7446 7450 28
5961 7451 7452 28
5962 7451 7453 28
5963 7451 7454 28
5964 7451 7455 28
5965 7456 7457 28
5966 7456 7458 28
5967 7456 7459 28
5968 7456 7460 28
5969 7461 7462 28
5970 7461 7463 28
5971 7461 7464 28
5972 7461 7465 28
5973 7466 7467 28
5974 7466 7468 28
5975 7466 7469 28
5976 7466 7470 28
5977 7471 7472 28
5978 7471 7473 28
5979 7471 7474 28
5980 7471 7475 28
5981 7476 7477 28
5982 7476 7478 28
5983 7476 7479 28
5984 7476 7480 28
5985 7481 7482 28
5986 7481 7483 28
5987 7481 7484 28
5988 7481 7485 28
5989 7486 7487 28
5990 7486 7488 28
5991 7486 7489 28
5992 7486 7490 28
5993 7491 7492 28
5994 7491 7493 28
5995 7491 7494 28
5996 7491 7495 28
5997 7496 7497 28
5998 7496 7498 28
5999 7496 7499 28
6000 7496 7500 28
6001 7501 7502 28
6002 7501 7503 28
6003 7501 7504 28
6004 7501 7505 28
6005 7506 7507 28
6006 7506 7508 28
6007 7506 7509 28
6008 7506 7510 28
6009 7511 7512 28
6010 7511 7513 28
6011 7511 7514 28
6012 7511 7515 28
6013 7516 7517 28
6014 7516 7518 28
6015 7516 7519 28
6016 7516 7520 28
6017 7521 7522 28
6018 7521 7523 28
6019 7521 7524 28
6020 7521 7525 28
6021 7526 7527 28
6022 7526 7528 28
6023 7526 7529 28
6024 7526 7530 28
6025 7531 7532 28
6026 7531 7533 28
6027 7531 7534 28
6028 7531 7535 28
6029 7536 7537 28
6030 7536 7538 28
6031 7536 7539 28
6032 7536 7540 28
6033 7541 7542 28
6034 7541 7543 28
6035 7541 7544 28
6036 7541 7545 28
6037 7546 7547 28
6038 7546 7548 28
6039 7546 7549 28
6040 7546 7550 28
6041 7551 7552 28
6042 7551 7553 28
6043 7551 7554 28
6044 7551 7555 28
6045 7556 7557 28
6046 7556 7558 28
6047 7556 7559 28
6048 7556 7560 28
6049 7561 7562 28
6050 7561 7563 28
6051 7561 7564 28
6052 7561 7565 28
6053 7566 7567 28
6054 7566 7568 28
6055 7566 7569 28
6056 7566 7570 28
6057 7571 7572 28
6058 7571 7573 28
6059 7571 7574 28
6060 7571 7575 28
6061 7576 7577 28
6062 7576 7578 28
6063 7576 7579 28
6064 7576 7580 28
6065 7581 7582 28
6066 7581 7583 28
6067 7581 7584 28
6068 7581 7585 28
6069 7586 7587 28
6070 7586 7588 28
6071 7586 7589 28
6072 7586 7590 28
6073 7591 7592 28
6074 7591 7593 28
6075 7591 7594 28
6076 7591 7595 28
6077 7596 7597 28
6078 7596 7598 28
6079 7596 7599 28
6080 7596 7600 28
6081 7601 7602 28
6082 7601 7603 28
6083 7601 7604 28
6084 7601 7605 28
6085 7606 7607 28
6086 7606 7608 28
6087 7606 7609 28
6088 7606 7610 28
6089 7611 7612 28
6090 7611 7613 28
6091 7611 7614 28
6092 7611 7615 28
6093 7616 7617 28
6094 7616 7618 28
6095 7616 7619 28
6096 7616 7620 28
6097 7621 7622 28
6098 7621 7623 28
6099 7621 7624 28
6100 7621 7625 28
6101 7626 7627 28
6102 7626 7628 28
6103 7626 7629 28
6104 7626 7630 28
6105 7631 7632 28
6106 7631 7633 28
6107 7631 7634 28
6108 7631 7635 28
6109 7636 7637 28
6110 7636 7638 28
6111 7636 7639 28
6112 7636 7640 28
6113 7641 7642 28
6114 7641 7643 28
6115 7641 7644 28
6116 7641 7645 28
6117 7646 7647 28
6118 7646 7648 28
6119 7646 7649 28
6120 7646 7650 28
6121 7651 7652 28
6122 7651 7653 28
6123 7651 7654 28
6124 7651 7655 28
6125 7656 7657 28
6126 7656 7658 28
6127 7656 7659 28
6128 7656 7660 28
6129 7661 7662 28
6130 7661 7663 28
6131 7661 7664 28
6132 7661 7665 28
6133 7666 7667 28
6134 7666 7668 28
6135 7666 7669 28
6136 7666 7670 28
6137 7671 7672 28
6138 7671 7673 28
6139 7671 7674 28
6140 7671 7675 28
6141 7676 7677 28
6142 7676 7678 28
6143 7676 7679 28
6144 7676 7680 28
6145 7681 7682 28
6146 7681 7683 28
6147 7681 7684 28
6148 7681 7685 28
6149 7686 7687 28
6150 7686 7688 28
6151 7686 7689 28
6152 7686 7690 28
6153 7691 7692 28
6154 7691 7693 28
6155 7691 7694 28
6156 7691 7695 28
6157 7696 7697 28
6158 7696 7698 28
6159 7696 7699 28
6160 7696 7700 28
6161 7701 7702 28
6162 7701 7703 28
6163 7701 7704 28
6164 7701 7705 28
6165 7706 7707 28
6166 7706 7708 28
6167 7706 7709 28
6168 7706 7710 28
6169 7711 7712 28
6170 7711 7713 28
6171 7711 7714 28
6172 7711 7715 28
6173 7716 7717 28
6174 7716 7718 28
6175 7716 7719 28
6176 7716 7720 28
6177 7721 7722 28
6178 7721 7723 28
6179 7721 7724 28
6180 7721 7725 28
6181 7726 7727 28
6182 7726 7728 28
6183 7726 7729 28
6184 7726 7730 28
6185 7731 7732 28
6186 7731 7733 28
6187 7731 7734 28
6188 7731 7735 28
6189 7736 7737 28
6190 7736 7738 28
6191 7736 7739 28
6192 7736 7740 28
6193 7741 7742 28
6194 7741 7743 28
6195 7741 7744 28
6196 7741 7745 28
6197 7746 7747 28
6198 7746 7748 28
6199 7746 7749 28
6200 7746 7750 28
6201 7751 7752 28
6202 7751 7753 28
6203 7751 7754 28
6204 7751 7755 28
6205 7756 7757 28
6206 7756 7758 28
6207 7756 7759 28
6208 7756 7760 28
6209 7761 7762 28
6210 7761 7763 28
6211 7761 7764 28
6212 7761 7765 28
6213 7766 7767 28
6214 7766 7768 28
6215 7766 7769 28
6216 7766 7770 28
6217 7771 7772 28
6218 7771 7773 28
6219 7771 7774 28
6220 7771 7775 28
6221 7776 7777 28
6222 7776 7778 28
6223 7776 7779 28
6224 7776 7780 28
6225 7781 7782 28
6226 7781 7783 28
6227 7781 7784 28
6228 7781 7785 28
6229 7786 7787 28
6230 7786 7788 28
6231 7786 7789 28
6232 7786 7790 28
6233 7791 7792 28
6234 7791 7793 28
6235 7791 7794 28
6236 7791 7795 28
6237 7796 7797 28
6238 7796 7798 28
6239 7796 7799 28
6240 7796 7800 28
6241 7801 7802 28
6242 7801 7803 28
6243 7801 7804 28
6244 7801 7805 28
6245 7806 7807 28
6246 7806 7808 28
6247 7806 7809 28
6248 7806 7810 28
6249 7811 7812 28
6250 7811 7813 28
6251 7811 7814 28
6252 7811 7815 28
6253 7816 7817 28
6254 7816 7818 28
6255 7816 7819 28
6256 7816 7820 28
6257 7821 7822 28
6258 7821 7823 28
6259 7821 7824 28
6260 7821 7825 28
6261 7826 7827 28
6262 7826 7828 28
6263 7826 7829 28
6264 7826 7830 28
6265 7831 7832 28
6266 7831 7833 28
6267 7831 7834 28
6268 7831 7835 28
6269 7836 7837 28
6270 7836 7838 28
6271 7836 7839 28
6272 7836 7840 28
6273 7841 7842 28
6274 7841 7843 28
6275 7841 7844 28
6276 7841 7845 28
6277 7846 7847 28
6278 7846 7848 28
6279 7846 7849 28
6280 7846 7850 28
6281 7851 7852 28
6282 7851 7853 28
6283 7851 7854 28
6284 7851 7855 28
6285 7856 7857 28
6286 7856 7858 28
6287 7856 7859 28
6288 7856 7860 28
6289 7861 7862 28
6290 7861 7863 28
6291 7861 7864 28
6292 7861 7865 28
6293 7866 7867 28
6294 7866 7868 28
6295 7866 7869 28
6296 7866 7870 28
6297 7871 7872 28
6298 7871 7873 28
6299 7871 7874 28
6300 7871 7875 28
6301 7876 7877 28
6302 7876 7878 28
6303 7876 7879 28
6304 7876 7880 28
6305 7881 7882 28
6306 7881 7883 28
6307 7881 7884 28
6308 7881 7885 28
6309 7886 7887 28
6310 7886 7888 28
6311 7886 7889 28
6312 7886 7890 28
6313 7891 7892 28
6314 7891 7893 28
6315 7891 7894 28
6316 7891 7895 28
6317 7896 7897 28
6318 7896 7898 28
6319 7896 7899 28
6320 7896 7900 28
6321 7901 7902 28
6322 7901 7903 28
6323 7901 7904 28
6324 7901 7905 28
6325 7906 7907 28
6326 7906 7908 28
6327 7906 7909 28
6328 7906 7910 28
6329 7911 7912 28
6330 7911 7913 28
6331 7911 7914 28
6332 7911 7915 28
6333 7916 7917 28
6334 7916 7918 28
6335 7916 7919 28
6336 7916 7920 28
6337 7921 7922 28
6338 7921 7923 28
6339 7921 7924 28
6340 7921 7925 28
6341 7926 7927 28
6342 7926 7928 28
6343 7926 7929 28
6344 7926 7930 28
6345 7931 7932 28
6346 7931 7933 28
6347 7931 7934 28
6348 7931 7935 28
6349 7936 7937 28
6350 7936 7938 28
6351 7936 7939 28
6352 7936 7940 28
6353 7941 7942 28
6354 7941 7943 28
6355 7941 7944 28
6356 7941 7945 28
6357 7946 7947 28
6358 7946 7948 28
6359 7946 7949 28
6360 7946 7950 28
6361 7951 7952 28
6362 7951 7953 28
6363 7951 7954 28
6364 7951 7955 28
6365 7956 7957 28
6366 7956 7958 28
6367 7956 7959 28
6368 7956 7960 28
6369 7961 7962 28
6370 7961 7963 28
6371 7961 7964 28
6372 7961 7965 28
6373 7966 7967 28
6374 7966 7968 28
6375 7966 7969 28
6376 7966 7970 28
6377 7971 7972 28
6378 7971 7973 28
6379 7971 7974 28
6380 7971 7975 28
6381 7976 7977 28
6382 7976 7978 28
6383 7976 7979 28
6384 7976 7980 28
6385 7981 7982 28
6386 7981 7983 28
6387 7981 7984 28
6388 7981 7985 28
6389 7986 7987 28
6390 7986 7988 28
6391 7986 7989 28
6392 7986 7990 28
6393 7991 7992 28
6394 7991 7993 28
6395 7991 7994 28
6396 7991 7995 28
6397 7996 7997 28
6398 7996 7998 28
6399 7996 7999 28
6400 7996 8000 28
6401 8001 8002 28
6402 8001 8003 28
6403 8001 8004 28
6404 8001 8005 28
6405 8006 8007 28
6406 8006 8008 28
6407 8006 8009 28
6408 8006 8010 28
6409 8011 8012 28
6410 8011 8013 28
6411 8011 8014 28
6412 8011 8015 28
6413 8016 8017 28
6414 8016 8018 28
6415 8016 8019 28
6416 8016 8020 28
6417 8021 8022 28
6418 8021 8023 28
6419 8021 8024 28
6420 8021 8025 28
6421 8026 8027 28
6422 8026 8028 28
6423 8026 8029 28
6424 8026 8030 28
6425 8031 8032 28
6426 8031 8033 28
6427 8031 8034 28
6428 8031 8035 28
6429 8036 8037 28
6430 8036 8038 28
6431 8036 8039 28
6432 8036 8040 28
6433 8041 8042 28
6434 8041 8043 28
6435 8041 8044 28
6436 8041 8045 28
6437 8046 8047 28
6438 8046 8048 28
6439 8046 8049 28
6440 8046 8050 28
6441 8051 8052 28
6442 8051 8053 28
6443 8051 8054 28
6444 8051 8055 28
6445 8056 8057 28
6446 8056 8058 28
6447 8056 8059 28
6448 8056 8060 28
6449 8061 8062 28
6450 8061 8063 28
6451 8061 8064 28
6452 8061 8065 28
6453 8066 8067 28
6454 8066 8068 28
6455 8066 8069 28
6456 8066 8070 28
6457 8071 8072 28
6458 8071 8073 28
6459 8071 8074 28
6460 8071 8075 28
6461 8076 8077 28
6462 8076 8078 28
6463 8076 8079 28
6464 8076 8080 28
6465 8081 8082 28
6466 8081 8083 28
6467 8081 8084 28
6468 8081 8085 28
6469 8086 8087 28
6470 8086 8088 28
6471 8086 8089 28
6472 8086 8090 28
6473 8091 8092 28
6474 8091 8093 28
6475 8091 8094 28
6476 8091 8095 28
6477 8096 8097 28
6478 8096 8098 28
6479 8096 8099 28
6480 8096 8100 28
6481 8101 8102 28
6482 8101 8103 28
6483 8101 8104 28
6484 8101 8105 28
6485 8106 8107 28
6486 8106 8108 28
6487 8106 8109 28
6488 8106 8110 28
6489 8111 8112 28
6490 8111 8113 28
6491 8111 8114 28
6492 8111 8115 28
6493 8116 8117 28
6494 8116 8118 28
6495 8116 8119 28
6496 8116 8120 28
6497 8121 8122 28
6498 8121 8123 28
6499 8121 8124 28
6500 8121 8125 28
6501 8126 8127 28
6502 8126 8128 28
6503 8126 8129 28
6504 8126 8130 28
6505 8131 8132 28
6506 8131 8133 28
6507 8131 8134 28
6508 8131 8135 28
6509 8136 8137 28
6510 8136 8138 28
6511 8136 8139 28
6512 8136 8140 28
6513 8141 8142 28
6514 8141 8143 28
6515 8141 8144 28
6516 8141 8145 28
6517 8146 8147 28
6518 8146 8148 28
6519 8146 8149 28
6520 8146 8150 28
6521 8151 8152 28
6522 8151 8153 28
6523 8151 8154 28
6524 8151 8155 28
6525 8156 8157 28
6526 8156 8158 28
6527 8156 8159 28
6528 8156 8160 28
6529 8161 8162 28
6530 8161 8163 28
6531 8161 8164 28
6532 8161 8165 28
6533 8166 8167 28
6534 8166 8168 28
6535 8166 8169 28
6536 8166 8170 28
6537 8171 8172 28
6538 8171 8173 28
6539 8171 8174 28
6540 8171 8175 28
6541 8176 8177 28
6542 8176 8178 28
6543 8176 8179 28
6544 8176 8180 28
6545 8181 8182 28
6546 8181 8183 28
6547 8181 8184 28
6548 8181 8185 28
6549 8186 8187 28
6550 8186 8188 28
6551 8186 8189 28
6552 8186 8190 28
6553 8191 8192 28
6554 8191 8193 28
6555 8191 8194 28
6556 8191 8195 28
6557 8196 8197 28
6558 8196 8198 28
6559 8196 8199 28
6560 8196 8200 28
6561 8201 8202 28
6562 8201 8203 28
6563 8201 8204 28
6564 8201 8205 28
6565 8206 8207 28
6566 8206 8208 28
6567 8206 8209 28
6568 8206 8210 28
6569 8211 8212 28
6570 8211 8213 28
6571 8211 8214 28
6572 8211 8215 28
6573 8216 8217 28
6574 8216 8218 28
6575 8216 8219 28
6576 8216 8220 28
6577 8221 8222 28
6578 8221 8223 28
6579 8221 8224 28
6580 8221 8225 28
6581 8226 8227 28
6582 8226 8228 28
6583 8226 8229 28
6584 8226 8230 28
6585 8231 8232 28
6586 8231 8233 28
6587 8231 8234 28
6588 8231 8235 28
6589 8236 8237 28
6590 8236 8238 28
6591 8236 8239 28
6592 8236 8240 28
6593 8241 8242 28
6594 8241 8243 28
6595 8241 8244 28
6596 8241 8245 28
6597 8246 8247 28
6598 8246 8248 28
6599 8246 8249 28
6600 8246 8250 28
6601 8251 8252 28
6602 8251 8253 28
6603 8251 8254 28
6604 8251 8255 28
6605 8256 8257 28
6606 8256 8258 28
6607 8256 8259 28
6608 8256 8260 28
6609 8261 8262 28
6610 8261 8263 28
6611 8261 8264 28
6612 8261 8265 28
6613 8266 8267 28
6614 8266 8268 28
6615 8266 8269 28
6616 8266 8270 28
6617 8271 8272 28
6618 8271 8273 28
6619 8271 8274 28
6620 8271 8275 28
6621 8276 8277 28
6622 8276 8278 28
6623 8276 8279 28
6624 8276 8280 28
6625 8281 8282 28
6626 8281 8283 28
6627 8281 8284 28
6628 8281 8285 28
6629 8286 8287 28
6630 8286 8288 28
6631 8286 8289 28
6632 8286 8290 28
6633 8291 8292 28
6634 8291 8293 28
6635 8291 8294 28
6636 8291 8295 28
6637 8296 8297 28
6638 8296 8298 28
6639 8296 8299 28
6640 8296 8300 28
6641 8301 8302 28
6642 8301 8303 28
6643 8301 8304 28
6644 8301 8305 28
6645 8306 8307 28
6646 8306 8308 28
6647 8306 8309 28
6648 8306 8310 28
6649 8311 8312 28
6650 8311 8313 28
6651 8311 8314 28
6652 8311 8315 28
6653 8316 8317 28
6654 8316 8318 28
6655 8316 8319 28
6656 8316 8320 28
6657 8321 8322 28
6658 8321 8323 28
6659 8321 8324 28
6660 8321 8325 28
6661 8326 8327 28
6662 8326 8328 28
6663 8326 8329 28
6664 8326 8330 28
6665 8331 8332 28
6666 8331 8333 28
6667 8331 8334 28
6668 8331 8335 28
6669 8336 8337 28
6670 8336 8338 28
6671 8336 8339 28
6672 8336 8340 28
6673 8341 8342 28
6674 8341 8343 28
6675 8341 8344 28
6676 8341 8345 28
6677 8346 8347 28
6678 8346 8348 28
6679 8346 8349 28
6680 8346 8350 28
6681 8351 8352 28
6682 8351 8353 28
6683 8351 8354 28
6684 8351 8355 28
6685 8356 8357 28
6686 8356 8358 28
6687 8356 8359 28
6688 8356 8360 28
6689 8361 8362 28
6690 8361 8363 28
6691 8361 8364 28
6692 8361 8365 28
6693 8366 8367 28
6694 8366 8368 28
6695 8366 8369 28
6696 8366 8370 28
6697 8371 8372 28
6698 8371 8373 28
6699 8371 8374 28
6700 8371 8375 28
6701 8376 8377 28
6702 8376 8378 28
6703 8376 8379 28
6704 8376 8380 28
6705 8381 8382 28
6706 8381 8383 28
6707 8381 8384 28
6708 8381 8385 28
6709 8386 8387 28
6710 8386 8388 28
6711 8386 8389 28
6712 8386 8390 28
6713 8391 8392 28
6714 8391 8393 28
6715 8391 8394 28
6716 8391 8395 28
6717 8396 8397 28
6718 8396 8398 28
6719 8396 8399 28
6720 8396 8400 28
6721 8401 8402 28
6722 8401 8403 28
6723 8401 8404 28
6724 8401 8405 28
6725 8406 8407 28
6726 8406 8408 28
6727 8406 8409 28
6728 8406 8410 28
6729 8411 8412 28
6730 8411 8413 28
6731 8411 8414 28
6732 8411 8415 28
6733 8416 8417 28
6734 8416 8418 28
6735 8416 8419 28
6736 8416 8420 28
6737 8421 8422 28
6738 8421 8423 28
6739 8421 8424 28
6740 8421 8425 28
6741 8426 8427 28
6742 8426 8428 28
6743 8426 8429 28
6744 8426 8430 28
6745 8431 8432 28
6746 8431 8433 28
6747 8431 8434 28
6748 8431 8435 28
6749 8436 8437 28
6750 8436 8438 28
6751 8436 8439 28
6752 8436 8440 28
6753 8441 8442 28
6754 8441 8443 28
6755 8441 8444 28
6756 8441 8445 28
6757 8446 8447 28
6758 8446 8448 28
6759 8446 8449 28
6760 8446 8450 28
6761 8451 8452 28
6762 8451 8453 28
6763 8451 8454 28
6764 8451 8455 28
6765 8456 8457 28
6766 8456 8458 28
6767 8456 8459 28
6768 8456 8460 28
6769 8461 8462 28
6770 8461 8463 28
6771 8461 8464 28
6772 8461 8465 28
6773 8466 8467 28
6774 8466 8468 28
6775 8466 8469 28
6776 8466 8470 28
6777 8471 8472 28
6778 8471 8473 28
6779 8471 8474 28
6780 8471 8475 28
6781 8476 8477 28
6782 8476 8478 28
6783 8476 8479 28
6784 8476 8480 28
6785 8481 8482 28
6786 8481 8483 28
6787 8481 8484 28
6788 8481 8485 28
6789 8486 8487 28
6790 8486 8488 28
6791 8486 8489 28
6792 8486 8490 28
6793 8491 8492 28
6794 8491 8493 28
6795 8491 8494 28
6796 8491 8495 28
6797 8496 8497 28
6798 8496 8498 28
6799 8496 8499 28
6800 8496 8500 28
6801 8501 8502 28
6802 8501 8503 28
6803 8501 8504 28
6804 8501 8505 28
6805 8506 8507 28
6806 8506 8508 28
6807 8506 8509 28
6808 8506 8510 28
6809 8511 8512 28
6810 8511 8513 28
6811 8511 8514 28
6812 8511 8515 28
6813 8516 8517 28
6814 8516 8518 28
6815 8516 8519 28
6816 8516 8520 28
6817 8521 8522 28
6818 8521 8523 28
6819 8521 8524 28
6820 8521 8525 28
6821 8526 8527 28
6822 8526 8528 28
6823 8526 8529 28
6824 8526 8530 28
6825 8531 8532 28
6826 8531 8533 28
6827 8531 8534 28
6828 8531 8535 28
6829 8536 8537 28
6830 8536 8538 28
6831 8536 8539 28
6832 8536 8540 28
6833 8541 8542 28
6834 8541 8543 28
6835 8541 8544 28
6836 8541 8545 28
6837 8546 8547 28
6838 8546 8548 28
6839 8546 8549 28
6840 8546 8550 28
6841 8551 8552 28
6842 8551 8553 28
6843 8551 8554 28
6844 8551 8555 28
6845 8556 8557 28
6846 8556 8558 28
6847 8556 8559 28
6848 8556 8560 28
6849 8561 8562 28
6850 8561 8563 28
6851 8561 8564 28
6852 8561 8565 28
6853 8566 8567 28
6854 8566 8568 28
6855 8566 8569 28
6856 8566 8570 28
6857 8571 8572 28
6858 8571 8573 28
6859 8571 8574 28
6860 8571 8575 28
6861 8576 8577 28
6862 8576 8578 28
6863 8576 8579 28
6864 8576 8580 28
6865 8581 8582 28
6866 8581 8583 28
6867 8581 8584 28
6868 8581 8585 28
6869 8586 8587 28
6870 8586 8588 28
6871 8586 8589 28
6872 8586 8590 28
6873 8591 8592 28
6874 8591 8593 28
6875 8591 8594 28
6876 8591 8595 28
6877 8596 8597 28
6878 8596 8598 28
6879 8596 8599 28
6880 8596 8600 28
6881 8601 8602 28
6882 8601 8603 28
6883 8601 8604 28
6884 8601 8605 28
6885 8606 8607 28
6886 8606 8608 28
6887 8606 8609 28
6888 8606 8610 28
6889 8611 8612 28
6890 8611 8613 28
6891 8611 8614 28
6892 8611 8615 28
6893 8616 8617 28
6894 8616 8618 28
6895 8616 8619 28
6896 8616 8620 28
6897 8621 8622 28
6898 8621 8623 28
6899 8621 8624 28
6900 8621 8625 28
6901 8626 8627 28
6902 8626 8628 28
6903 8626 8629 28
6904 8626 8630 28
6905 8631 8632 28
6906 8631 8633 28
6907 8631 8634 28
6908 8631 8635 28
6909 8636 8637 28
6910 8636 8638 28
6911 8636 8639 28
6912 8636 8640 28
6913 8641 8642 28
6914 8641 8643 28
6915 8641 8644 28
6916 8641 8645 28
6917 8646 8647 28
6918 8646 8648 28
6919 8646 8649 28
6920 8646 8650 28
6921 8651 8652 28
6922 8651 8653 28
6923 8651 8654 28
6924 8651 8655 28
6925 8656 8657 28
6926 8656 8658 28
6927 8656 8659 28
6928 8656 8660 28
6929 8661 8662 28
6930 8661 8663 28
6931 8661 8664 28
6932 8661 8665 28
6933 8666 8667 28
6934 8666 8668 28
6935 8666 8669 28
6936 8666 8670 28
6937 8671 8672 28
6938 8671 8673 28
6939 8671 8674 28
6940 8671 8675 28
6941 8676 8677 28
6942 8676 8678 28
6943 8676 8679 28
6944 8676 8680 28
6945 8681 8682 28
6946 8681 8683 28
6947 8681 8684 28
6948 8681 8685 28
6949 8686 8687 28
6950 8686 8688 28
6951 8686 8689 28
6952 8686 8690 28
6953 8691 8692 28
6954 8691 8693 28
6955 8691 8694 28
6956 8691 8695 28
6957 8696 8697 28
6958 8696 8698 28
6959 8696 8699 28
6960 8696 8700 28
6961 8701 8702 28
6962 8701 8703 28
6963 8701 8704 28
6964 8701 8705 28
6965 8706 8707 28
6966 8706 8708 28
6967 8706 8709 28
6968 8706 8710 28
6969 8711 8712 28
6970 8711 8713 28
6971 8711 8714 28
6972 8711 8715 28
6973 8716 8717 28
6974 8716 8718 28
6975 8716 8719 28
6976 8716 8720 28
6977 8721 8722 28
6978 8721 8723 28
6979 8721 8724 28
6980 8721 8725 28
6981 8726 8727 28
6982 8726 8728 28
6983 8726 8729 28
6984 8726 8730 28
6985 8731 8732 28
6986 8731 8733 28
6987 8731 8734 28
6988 8731 8735 28
6989 8736 8737 28
6990 8736 8738 28
6991 8736 8739 28
6992 8736 8740 28
6993 8741 8742 28
6994 8741 8743 28
6995 8741 8744 28
6996 8741 8745 28
6997 8746 8747 28
6998 8746 8748 28
6999 8746 8749 28
7000 8746 8750 28
7001 8751 8752 28
7002 8751 8753 28
7003 8751 8754 28
7004 8751 8755 28
7005 8756 8757 28
7006 8756 8758 28
7007 8756 8759 28
7008 8756 8760 28
7009 8761 8762 28
7010 8761 8763 28
7011 8761 8764 28
7012 8761 8765 28
7013 8766 8767 28
7014 8766 8768 28
7015 8766 8769 28
7016 8766 8770 28
7017 8771 8772 28
7018 8771 8773 28
7019 8771 8774 28
7020 8771 8775 28
7021 8776 8777 28
7022 8776 8778 28
7023 8776 8779 28
7024 8776 8780 28
7025 8781 8782 28
7026 8781 8783 28
7027 8781 8784 28
7028 8781 8785 28
7029 8786 8787 28
7030 8786 8788 28
7031 8786 8789 28
7032 8786 8790 28
7033 8791 8792 28
7034 8791 8793 28
7035 8791 8794 28
7036 8791 8795 28
7037 8796 8797 28
7038 8796 8798 28
7039 8796 8799 28
7040 8796 8800 28
7041 8801 8802 28
7042 8801 8803 28
7043 8801 8804 28
7044 8801 8805 28
7045 8806 8807 28
7046 8806 8808 28
7047 8806 8809 28
7048 8806 8810 28
7049 8811 8812 28
7050 8811 8813 28
7051 8811 8814 28
7052 8811 8815 28
7053 8816 8817 28
7054 8816 8818 28
7055 8816 8819 28
7056 8816 8820 28
7057 8821 8822 28
7058 8821 8823 28
7059 8821 8824 28
7060 8821 8825 28
7061 8826 8827 28
7062 8826 8828 28
7063 8826 8829 28
7064 8826 8830 28
7065 8831 8832 28
7066 8831 8833 28
7067 8831 8834 28
7068 8831 8835 28
7069 8836 8837 28
7070 8836 8838 28
7071 8836 8839 28
7072 8836 8840 28
7073 8841 8842 28
7074 8841 8843 28
7075 8841 8844 28
7076 8841 8845 28
7077 8846 8847 28
7078 8846 8848 28
7079 8846 8849 28
7080 8846 8850 28
7081 8851 8852 28
7082 8851 8853 28
7083 8851 8854 28
7084 8851 8855 28
7085 8856 8857 28
7086 8856 8858 28
7087 8856 8859 28
7088 8856 8860 28
7089 8861 8862 28
7090 8861 8863 28
7091 8861 8864 28
7092 8861 8865 28
7093 8866 8867 28
7094 8866 8868 28
7095 8866 8869 28
7096 8866 8870 28
7097 8871 8872 28
7098 8871 8873 28
7099 8871 8874 28
7100 8871 8875 28
7101 8876 8877 28
7102 8876 8878 28
7103 8876 8879 28
7104 8876 8880 28
7105 8881 8882 28
7106 8881 8883 28
7107 8881 8884 28
7108 8881 8885 28
7109 8886 8887 28
7110 8886 8888 28
7111 8886 8889 28
7112 8886 8890 28
7113 8891 8892 28
7114 8891 8893 28
7115 8891 8894 28
7116 8891 8895 28
7117 8896 8897 28
7118 8896 8898 28
7119 8896 8899 28
7120 8896 8900 28
7121 8901 8902 28
7122 8901 8903 28
7123 8901 8904 28
7124 8901 8905 28
7125 8906 8907 28
7126 8906 8908 28
7127 8906 8909 28
7128 8906 8910 28
7129 8911 8912 28
7130 8911 8913 28
7131 8911 8914 28
7132 8911 8915 28
7133 8916 8917 28
7134 8916 8918 28
7135 8916 8919 28
7136 8916 8920 28
7137 8921 8922 28
7138 8921 8923 28
7139 8921 8924 28
7140 8921 8925 28
7141 8926 8927 28
7142 8926 8928 28
7143 8926 8929 28
7144 8926 8930 28
7145 8931 8932 28
7146 8931 8933 28
7147 8931 8934 28
7148 8931 8935 28
7149 8936 8937 28
7150 8936 8938 28
7151 8936 8939 28
7152 8936 8940 28
7153 8941 8942 28
7154 8941 8943 28
7155 8941 8944 28
7156 8941 8945 28
7157 8946 8947 28
7158 8946 8948 28
7159 8946 8949 28
7160 8946 8950 28
7161 8951 8952 28
7162 8951 8953 28
7163 8951 8954 28
7164 8951 8955 28
7165 8956 8957 28
7166 8956 8958 28
7167 8956 8959 28
7168 8956 8960 28
7169 8961 8962 28
7170 8961 8963 28
7171 8961 8964 28
7172 8961 8965 28
7173 8966 8967 28
7174 8966 8968 28
7175 8966 8969 28
7176 8966 8970 28
7177 8971 8972 28
7178 8971 8973 28
7179 8971 8974 28
7180 8971 8975 28
7181 8976 8977 28
7182 8976 8978 28
7183 8976 8979 28
7184 8976 8980 28
7185 8981 8982 28
7186 8981 8983 28
7187 8981 8984 28
7188 8981 8985 28
7189 8986 8987 28
7190 8986 8988 28
7191 8986 8989 28
7192 8986 8990 28
7193 8991 8992 28
7194 8991 8993 28
7195 8991 8994 28
7196 8991 8995 28
7197 8996 8997 28
7198 8996 8998 28
7199 8996 8999 28
7200 8996 9000 28
7201 9001 9002 28
7202 9001 9003 28
7203 9001 9004 28
7204 9001 9005 28
7205 9006 9007 28
7206 9006 9008 28
7207 9006 9009 28
7208 9006 9010 28
7209 9011 9012 28
7210 9011 9013 28
7211 9011 9014 28
7212 9011 9015 28
7213 9016 9017 28
7214 9016 9018 28
7215 9016 9019 28
7216 9016 9020 28
7217 9021 9022 28
7218 9021 9023 28
7219 9021 9024 28
7220 9021 9025 28
7221 9026 9027 28
7222 9026 9028 28
7223 9026 9029 28
7224 9026 9030 28
7225 9031 9032 28
7226 9031 9033 28
7227 9031 9034 28
7228 9031 9035 28
7229 9036 9037 28
7230 9036 9038 28
7231 9036 9039 28
7232 9036 9040 28
7233 9041 9042 28
7234 9041 9043 28
7235 9041 9044 28
7236 9041 9045 28
7237 9046 9047 28
7238 9046 9048 28
7239 9046 9049 28
7240 9046 9050 28
7241 9051 9052 28
7242 9051 9053 28
7243 9051 9054 28
7244 9051 9055 28
7245 9056 9057 28
7246 9056 9058 28
7247 9056 9059 28
7248 9056 9060 28
7249 9061 9062 28
7250 9061 9063 28
7251 9061 9064 28
7252 9061 9065 28
7253 9066 9067 28
7254 9066 9068 28
7255 9066 9069 28
7256 9066 9070 28
7257 9071 9072 28
7258 9071 9073 28
7259 9071 9074 28
7260 9071 9075 28
7261 9076 9077 28
7262 9076 9078 28
7263 9076 9079 28
7264 9076 9080 28
7265 9081 9082 28
7266 9081 9083 28
7267 9081 9084 28
7268 9081 9085 28
7269 9086 9087 28
7270 9086 9088 28
7271 9086 9089 28
7272 9086 9090 28
7273 9091 9092 28
7274 9091 9093 28
7275 9091 9094 28
7276 9091 9095 28
7277 9096 9097 28
7278 9096 9098 28
7279 9096 9099 28
7280 9096 9100 28
7281 9101 9102 28
7282 9101 9103 28
7283 9101 9104 28
7284 9101 9105 28
7285 9106 9107 28
7286 9106 9108 28
7287 9106 9109 28
7288 9106 9110 28
7289 9111 9112 28
7290 9111 9113 28
7291 9111 9114 28
7292 9111 9115 28
7293 9116 9117 28
7294 9116 9118 28
7295 9116 9119 28
7296 9116 9120 28
7297 9121 9122 28
7298 9121 9123 28
7299 9121 9124 28
7300 9121 9125 28
7301 9126 9127 28
7302 9126 9128 28
7303 9126 9129 28
7304 9126 9130 28
7305 9131 9132 28
7306 9131 9133 28
7307 9131 9134 28
7308 9131 9135 28
7309 9136 9137 28
7310 9136 9138 28
7311 9136 9139 28
7312 9136 9140 28
7313 9141 9142 28
7314 9141 9143 28
7315 9141 9144 28
7316 9141 9145 28
7317 9146 9147 28
7318 9146 9148 28
7319 9146 9149 28
7320 9146 9150 28
7321 9151 9152 28
7322 9151 9153 28
7323 9151 9154 28
7324 9151 9155 28
7325 9156 9157 28
7326 9156 9158 28
7327 9156 9159 28
7328 9156 9160 28
7329 9161 9162 28
7330 9161 9163 28
7331 9161 9164 28
7332 9161 9165 28
7333 9166 9167 28
7334 9166 9168 28
7335 9166 9169 28
7336 9166 9170 28
7337 9171 9172 28
7338 9171 9173 28
7339 9171 9174 28
7340 9171 9175 28
7341 9176 9177 28
7342 9176 9178 28
7343 9176 9179 28
7344 9176 9180 28
7345 9181 9182 28
7346 9181 9183 28
7347 9181 9184 28
7348 9181 9185 28
7349 9186 9187 28
7350 9186 9188 28
7351 9186 9189 28
7352 9186 9190 28
7353 9191 9192 28
7354 9191 9193 28
7355 9191 9194 28
7356 9191 9195 28
7357 9196 9197 28
7358 9196 9198 28
7359 9196 9199 28
7360 9196 9200 28
7361 9201 9202 28
7362 9201 9203 28
7363 9201 9204 28
7364 9201 9205 28
7365 9206 9207 28
7366 9206 9208 28
7367 9206 9209 28
7368 9206 9210 28
7369 9211 9212 28
7370 9211 9213 28
7371 9211 9214 28
7372 9211 9215 28
7373 9216 9217 28
7374 9216 9218 28
7375 9216 9219 28
7376 9216 9220 28
7377 9221 9222 28
7378 9221 9223 28
7379 9221 9224 28
7380 9221 9225 28
7381 9226 9227 28
7382 9226 9228 28
7383 9226 9229 28
7384 9226 9230 28
7385 9231 9232 28
7386 9231 9233 28
7387 9231 9234 28
7388 9231 9235 28
7389 9236 9237 28
7390 9236 9238 28
7391 9236 9239 28
7392 9236 9240 28
7393 9241 9242 28
7394 9241 9243 28
7395 9241 9244 28
7396 9241 9245 28
7397 9246 9247 28
7398 9246 9248 28
7399 9246 9249 28
7400 9246 9250 28
7401 9251 9252 28
7402 9251 9253 28
7403 9251 9254 28
7404 9251 9255 28
7405 9256 9257 28
7406 9256 9258 28
7407 9256 9259 28
7408 9256 9260 28
7409 9261 9262 28
7410 9261 9263 28
7411 9261 9264 28
7412 9261 9265 28
7413 9266 9267 28
7414 9266 9268 28
7415 9266 9269 28
7416 9266 9270 28
7417 9271 9272 28
7418 9271 9273 28
7419 9271 9274 28
7420 9271 9275 28
7421 9276 9277 28
7422 9276 9278 28
7423 9276 9279 28
7424 9276 9280 28
7425 9281 9282 28
7426 9281 9283 28
7427 9281 9284 28
7428 9281 9285 28
7429 9286 9287 28
7430 9286 9288 28
7431 9286 9289 28
7432 9286 9290 28
7433 9291 9292 28
7434 9291 9293 28
7435 9291 9294 28
7436 9291 9295 28
7437 9296 9297 28
7438 9296 9298 28
7439 9296 9299 28
7440 9296 9300 28
7441 9301 9302 28
7442 9301 9303 28
7443 9301 9304 28
7444 9301 9305 28
7445 9306 9307 28
7446 9306 9308 28
7447 9306 9309 28
7448 9306 9310 28
7449 9311 9312 28
7450 9311 9313 28
7451 9311 9314 28
7452 9311 9315 28
7453 9316 9317 28
7454 9316 9318 28
7455 9316 9319 28
7456 9316 9320 28
7457 9321 9322 28
7458 9321 9323 28
7459 9321 9324 28
7460 9321 9325 28
7461 9326 9327 28
7462 9326 9328 28
7463 9326 9329 28
7464 9326 9330 28
7465 9331 9332 28
7466 9331 9333 28
7467 9331 9334 28
7468 9331 9335 28
7469 9336 9337 28
7470 9336 9338 28
7471 9336 9339 28
7472 9336 9340 28
7473 9341 9342 28
7474 9341 9343 28
7475 9341 9344 28
7476 9341 9345 28
7477 9346 9347 28
7478 9346 9348 28
7479 9346 9349 28
7480 9346 9350 28
7481 9351 9352 28
7482 9351 9353 28
7483 9351 9354 28
7484 9351 9355 28
7485 9356 9357 28
7486 9356 9358 28
7487 9356 9359 28
7488 9356 9360 28
7489 9361 9362 28
7490 9361 9363 28
7491 9361 9364 28
7492 9361 9365 28
7493 9366 9367 28
7494 9366 9368 28
7495 9366 9369 28
7496 9366 9370 28
7497 9371 9372 28
7498 9371 9373 28
7499 9371 9374 28
7500 9371 9375 28
7501 9376 9377 28
7502 9376 9378 28
7503 9376 9379 28
7504 9376 9380 28
7505 9381 9382 28
7506 9381 9383 28
7507 9381 9384 28
7508 9381 9385 28
7509 9386 9387 28
7510 9386 9388 28
7511 9386 9389 28
7512 9386 9390 28
7513 9391 9392 28
7514 9391 9393 28
7515 9391 9394 28
7516 9391 9395 28
7517 9396 9397 28
7518 9396 9398 28
7519 9396 9399 28
7520 9396 9400 28
7521 9401 9402 28
7522 9401 9403 28
7523 9401 9404 28
7524 9401 9405 28
7525 9406 9407 28
7526 9406 9408 28
7527 9406 9409 28
7528 9406 9410 28
7529 9411 9412 28
7530 9411 9413 28
7531 9411 9414 28
7532 9411 9415 28
7533 9416 9417 28
7534 9416 9418 28
7535 9416 9419 28
7536 9416 9420 28
7537 9421 9422 28
7538 9421 9423 28
7539 9421 9424 28
7540 9421 9425 28
7541 9426 9427 28
7542 9426 9428 28
7543 9426 9429 28
7544 9426 9430 28
7545 9431 9432 28
7546 9431 9433 28
7547 9431 9434 28
7548 9431 9435 28
7549 9436 9437 28
7550 9436 9438 28
7551 9436 9439 28
7552 9436 9440 28
7553 9441 9442 28
7554 9441 9443 28
7555 9441 9444 28
7556 9441 9445 28
7557 9446 9447 28
7558 9446 9448 28
7559 9446 9449 28
7560 9446 9450 28
7561 9451 9452 28
7562 9451 9453 28
7563 9451 9454 28
7564 9451 9455 28
7565 9456 9457 28
7566 9456 9458 28
7567 9456 9459 28
7568 9456 9460 28
7569 9461 9462 28
7570 9461 9463 28
7571 9461 9464 28
7572 9461 9465 28
7573 9466 9467 28
7574 9466 9468 28
7575 9466 9469 28
7576 9466 9470 28
7577 9471 9472 28
7578 9471 9473 28
7579 9471 9474 28
7580 9471 9475 28
7581 9476 9477 28
7582 9476 9478 28
7583 9476 9479 28
7584 9476 9480 28
7585 9481 9482 28
7586 9481 9483 28
7587 9481 9484 28
7588 9481 9485 28
7589 9486 9487 28
7590 9486 9488 28
7591 9486 9489 28
7592 9486 9490 28
7593 9491 9492 28
7594 9491 9493 28
7595 9491 9494 28
7596 9491 9495 28
7597 9496 9497 28
7598 9496 9498 28
7599 9496 9499 28
7600 9496 9500 28
7601 9501 9502 28
7602 9501 9503 28
7603 9501 9504 28
7604 9501 9505 28
7605 9506 9507 28
7606 9506 9508 28
7607 9506 9509 28
7608 9506 9510 28
7609 9511 9512 28
7610 9511 9513 28
7611 9511 9514 28
7612 9511 9515 28
7613 9516 9517 28
7614 9516 9518 28
7615 9516 9519 28
7616 9516 9520 28
7617 9521 9522 28
7618 9521 9523 28
7619 9521 9524 28
7620 9521 9525 28
7621 9526 9527 28
7622 9526 9528 28
7623 9526 9529 28
7624 9526 9530 28
7625 9531 9532 28
7626 9531 9533 28
7627 9531 9534 28
7628 9531 9535 28
7629 9536 9537 28
7630 9536 9538 28
7631 9536 9539 28
7632 9536 9540 28
7633 9541 9542 28
7634 9541 9543 28
7635 9541 9544 28
7636 9541 9545 28
7637 9546 9547 28
7638 9546 9548 28
7639 9546 9549 28
7640 9546 9550 28
7641 9551 9552 28
7642 9551 9553 28
7643 9551 9554 28
7644 9551 9555 28
7645 9556 9557 28
7646 9556 9558 28
7647 9556 9559 28
7648 9556 9560 28
7649 9561 9562 28
7650 9561 9563 28
7651 9561 9564 28
7652 9561 9565 28
7653 9566 9567 28
7654 9566 9568 28
7655 9566 9569 28
7656 9566 9570 28
7657 9571 9572 28
7658 9571 9573 28
7659 9571 9574 28
7660 9571 9575 28
7661 9576 9577 28
7662 9576 9578 28
7663 9576 9579 28
7664 9576 9580 28
7665 9581 9582 28
7666 9581 9583 28
7667 9581 9584 28
7668 9581 9585 28
7669 9586 9587 28
7670 9586 9588 28
7671 9586 9589 28
7672 9586 9590 28
7673 9591 9592 28
7674 9591 9593 28
7675 9591 9594 28
7676 9591 9595 28
7677 9596 9597 28
7678 9596 9598 28
7679 9596 9599 28
7680 9596 9600 28
7681 9601 9602 28
7682 9601 9603 28
7683 9601 9604 28
7684 9601 9605 28
7685 9606 9607 28
7686 9606 9608 28
7687 9606 9609 28
7688 9606 9610 28
7689 9611 9612 28
7690 9611 9613 28
7691 9611 9614 28
7692 9611 9615 28
7693 9616 9617 28
7694 9616 9618 28
7695 9616 9619 28
7696 9616 9620 28
7697 9621 9622 28
7698 9621 9623 28
7699 9621 9624 28
7700 9621 9625 28
7701 9626 9627 28
7702 9626 9628 28
7703 9626 9629 28
7704 9626 9630 28
7705 9631 9632 28
7706 9631 9633 28
7707 9631 9634 28
7708 9631 9635 28
7709 9636 9637 28
7710 9636 9638 28
7711 9636 9639 28
7712 9636 9640 28
7713 9641 9642 28
7714 9641 9643 28
7715 9641 9644 28
7716 9641 9645 28
7717 9646 9647 28
7718 9646 9648 28
7719 9646 9649 28
7720 9646 9650 28
7721 9651 9652 28
7722 9651 9653 28
7723 9651 9654 28
7724 9651 9655 28
7725 9656 9657 28
7726 9656 9658 28
7727 9656 9659 28
7728 9656 9660 28
7729 9661 9662 28
7730 9661 9663 28
7731 9661 9664 28
7732 9661 9665 28
7733 9666 9667 28
7734 9666 9668 28
7735 9666 9669 28
7736 9666 9670 28
7737 9671 9672 28
7738 9671 9673 28
7739 9671 9674 28
7740 9671 9675 28
7741 9676 9677 28
7742 9676 9678 28
7743 9676 9679 28
7744 9676 9680 28
7745 9681 9682 28
7746 9681 9683 28
7747 9681 9684 28
7748 9681 9685 28
7749 9686 9687 28
7750 9686 9688 28
7751 9686 9689 28
7752 9686 9690 28
7753 9691 9692 28
7754 9691 9693 28
7755 9691 9694 28
7756 9691 9695 28
7757 9696 9697 28
7758 9696 9698 28
7759 9696 9699 28
7760 9696 9700 28
7761 9701 9702 28
7762 9701 9703 28
7763 9701 9704 28
7764 9701 9705 28
7765 9706 9707 28
7766 9706 9708 28
7767 9706 9709 28
7768 9706 9710 28
7769 9711 9712 28
7770 9711 9713 28
7771 9711 9714 28
7772 9711 9715 28
7773 9716 9717 28
7774 9716 9718 28
7775 9716 9719 28
7776 9716 9720 28
7777 9721 9722 28
7778 9721 9723 28
7779 9721 9724 28
7780 9721 9725 28
7781 9726 9727 28
7782 9726 9728 28
7783 9726 9729 28
7784 9726 9730 28
7785 9731 9732 28
7786 9731 9733 28
7787 9731 9734 28
7788 9731 9735 28
7789 9736 9737 28
7790 9736 9738 28
7791 9736 9739 28
7792 9736 9740 28
7793 9741 9742 28
7794 9741 9743 28
7795 9741 9744 28
7796 9741 9745 28
7797 9746 9747 28
7798 9746 9748 28
7799 9746 9749 28
7800 9746 9750 28
7801 9751 9752 28
7802 9751 9753 28
7803 9751 9754 28
7804 9751 9755 28
7805 9756 9757 28
7806 9756 9758 28
7807 9756 9759 28
7808 9756 9760 28
7809 9761 9762 28
7810 9761 9763 28
7811 9761 9764 28
7812 9761 9765 28
7813 9766 9767 28
7814 9766 9768 28
7815 9766 9769 28
7816 9766 9770 28
7817 9771 9772 28
7818 9771 9773 28
7819 9771 9774 28
7820 9771 9775 28
7821 9776 9777 28
7822 9776 9778 28
7823 9776 9779 28
7824 9776 9780 28
7825 9781 9782 28
7826 9781 9783 28
7827 9781 9784 28
7828 9781 9785 28
7829 9786 9787 28
7830 9786 9788 28
7831 9786 9789 28
7832 9786 9790 28
7833 9791 9792 28
7834 9791 9793 28
7835 9791 9794 28
7836 9791 9795 28
7837 9796 9797 28
7838 9796 9798 28
7839 9796 9799 28
7840 9796 9800 28
7841 9801 9802 28
7842 9801 9803 28
7843 9801 9804 28
7844 9801 9805 28
7845 9806 9807 28
7846 9806 9808 28
7847 9806 9809 28
7848 9806 9810 28
7849 9811 9812 28
7850 9811 9813 28
7851 9811 9814 28
7852 9811 9815 28
7853 9816 9817 28
7854 9816 9818 28
7855 9816 9819 28
7856 9816 9820 28
7857 9821 9822 28
7858 9821 9823 28
7859 9821 9824 28
7860 9821 9825 28
7861 9826 9827 28
7862 9826 9828 28
7863 9826 9829 28
7864 9826 9830 28
7865 9831 9832 28
7866 9831 9833 28
7867 9831 9834 28
7868 9831 9835 28
7869 9836 9837 28
7870 9836 9838 28
7871 9836 9839 28
7872 9836 9840 28
7873 9841 9842 28
7874 9841 9843 28
7875 9841 9844 28
7876 9841 9845 28
7877 9846 9847 28
7878 9846 9848 28
7879 9846 9849 28
7880 9846 9850 28
7881 9851 9852 28
7882 9851 9853 28
7883 9851 9854 28
7884 9851 9855 28
7885 9856 9857 28
7886 9856 9858 28
7887 9856 9859 28
7888 9856 9860 28
7889 9861 9862 28
7890 9861 9863 28
7891 9861 9864 28
7892 9861 9865 28
7893 9866 9867 28
7894 9866 9868 28
7895 9866 9869 28
7896 9866 9870 28
7897 9871 9872 28
7898 9871 9873 28
7899 9871 9874 28
7900 9871 9875 28
7901 9876 9877 28
7902 9876 9878 28
7903 9876 9879 28
7904 9876 9880 28
7905 9881 9882 28
7906 9881 9883 28
7907 9881 9884 28
7908 9881 9885 28
7909 9886 9887 28
7910 9886 9888 28
7911 9886 9889 28
7912 9886 9890 28
7913 9891 9892 28
7914 9891 9893 28
7915 9891 9894 28
7916 9891 9895 28
7917 9896 9897 28
7918 9896 9898 28
7919 9896 9899 28
7920 9896 9900 28
7921 9901 9902 28
7922 9901 9903 28
7923 9901 9904 28
7924 9901 9905 28
7925 9906 9907 28
7926 9906 9908 28
7927 9906 9909 28
7928 9906 9910 28
7929 9911 9912 28
7930 9911 9913 28
7931 9911 9914 28
7932 9911 9915 28
7933 9916 9917 28
7934 9916 9918 28
7935 9916 9919 28
7936 9916 9920 28
7937 9921 9922 28
7938 9921 9923 28
7939 9921 9924 28
7940 9921 9925 28
7941 9926 9927 28
7942 9926 9928 28
7943 9926 9929 28
7944 9926 9930 28
7945 9931 9932 28
7946 9931 9933 28
7947 9931 9934 28
7948 9931 9935 28
7949 9936 9937 28
7950 9936 9938 28
7951 9936 9939 28
7952 9936 9940 28
7953 9941 9942 28
7954 9941 9943 28
7955 9941 9944 28
7956 9941 9945 28
7957 9946 9947 28
7958 9946 9948 28
7959 9946 9949 28
7960 9946 9950 28
7961 9951 9952 28
7962 9951 9953 28
7963 9951 9954 28
7964 9951 9955 28
7965 9956 9957 28
7966 9956 9958 28
7967 9956 9959 28
7968 9956 9960 28
7969 9961 9962 28
7970 9961 9963 28
7971 9961 9964 28
7972 9961 9965 28
7973 9966 9967 28
7974 9966 9968 28
7975 9966 9969 28
7976 9966 9970 28
7977 9971 9972 28
7978 9971 9973 28
7979 9971 9974 28
7980 9971 9975 28
7981 9976 9977 28
7982 9976 9978 28
7983 9976 9979 28
7984 9976 9980 28
7985 9981 9982 28
7986 9981 9983 28
7987 9981 9984 28
7988 9981 9985 28
7989 9986 9987 28
7990 9986 9988 28
7991 9986 9989 28
7992 9986 9990 28
7993 9991 9992 28
7994 9991 9993 28
7995 9991 9994 28
7996 9991 9995 28
7997 9996 9997 28
7998 9996 9998 28
7999 9996 9999 28
8000 9996 10000 28
8001 10001 10002 28
8002 10001 10003 28
8003 10001 10004 28
8004 10001 10005 28
8005 10006 10007 28
8006 10006 10008 28
8007 10006 10009 28
8008 10006 10010 28
8009 10011 10012 28
8010 10011 10013 28
8011 10011 10014 28
8012 10011 10015 28
8013 10016 10017 28
8014 10016 10018 28
8015 10016 10019 28
8016 10016 10020 28
8017 10021 10022 28
8018 10021 10023 28
8019 10021 10024 28
8020 10021 10025 28
8021 10026 10027 28
8022 10026 10028 28
8023 10026 10029 28
8024 10026 10030 28
8025 10031 10032 28
8026 10031 10033 28
8027 10031 10034 28
8028 10031 10035 28
8029 10036 10037 28
8030 10036 10038 28
8031 10036 10039 28
8032 10036 10040 28
8033 10041 10042 28
8034 10041 10043 28
8035 10041 10044 28
8036 10041 10045 28
8037 10046 10047 28
8038 10046 10048 28
8039 10046 10049 28
8040 10046 10050 28
8041 10051 10052 28
8042 10051 10053 28
8043 10051 10054 28
8044 10051 10055 28
8045 10056 10057 28
8046 10056 10058 28
8047 10056 10059 28
8048 10056 10060 28
8049 10061 10062 28
8050 10061 10063 28
8051 10061 10064 28
8052 10061 10065 28
8053 10066 10067 28
8054 10066 10068 28
8055 10066 10069 28
8056 10066 10070 28
8057 10071 10072 28
8058 10071 10073 28
8059 10071 10074 28
8060 10071 10075 28
8061 10076 10077 28
8062 10076 10078 28
8063 10076 10079 28
8064 10076 10080 28
8065 10081 10082 28
8066 10081 10083 28
8067 10081 10084 28
8068 10081 10085 28
8069 10086 10087 28
8070 10086 10088 28
8071 10086 10089 28
8072 10086 10090 28
8073 10091 10092 28
8074 10091 10093 28
8075 10091 10094 28
8076 10091 10095 28
8077 10096 10097 28
8078 10096 10098 28
8079 10096 10099 28
8080 10096 10100 28
8081 10101 10102 28
8082 10101 10103 28
8083 10101 10104 28
8084 10101 10105 28
8085 10106 10107 28
8086 10106 10108 28
8087 10106 10109 28
8088 10106 10110 28
8089 10111 10112 28
8090 10111 10113 28
8091 10111 10114 28
8092 10111 10115 28
8093 10116 10117 28
8094 10116 10118 28
8095 10116 10119 28
8096 10116 10120 28
8097 10121 10122 28
8098 10121 10123 28
8099 10121 10124 28
8100 10121 10125 28
8101 10126 10127 28
8102 10126 10128 28
8103 10126 10129 28
8104 10126 10130 28
8105 10131 10132 28
8106 10131 10133 28
8107 10131 10134 28
8108 10131 10135 28
8109 10136 10137 28
8110 10136 10138 28
8111 10136 10139 28
8112 10136 10140 28
8113 10141 10142 28
8114 10141 10143 28
8115 10141 10144 28
8116 10141 10145 28
8117 10146 10147 28
8118 10146 10148 28
8119 10146 10149 28
8120 10146 10150 28
8121 10151 10152 28
8122 10151 10153 28
8123 10151 10154 28
8124 10151 10155 28
8125 10156 10157 28
8126 10156 10158 28
8127 10156 10159 28
8128 10156 10160 28
8129 10161 10162 28
8130 10161 10163 28
8131 10161 10164 28
8132 10161 10165 28
8133 10166 10167 28
8134 10166 10168 28
8135 10166 10169 28
8136 10166 10170 28
8137 10171 10172 28
8138 10171 10173 28
8139 10171 10174 28
8140 10171 10175 28
8141 10176 10177 28
8142 10176 10178 28
8143 10176 10179 28
8144 10176 10180 28
8145 10181 10182 28
8146 10181 10183 28
8147 10181 10184 28
8148 10181 10185 28
8149 10186 10187 28
8150 10186 10188 28
8151 10186 10189 28
8152 10186 10190 28
8153 10191 10192 28
8154 10191 10193 28
8155 10191 10194 28
8156 10191 10195 28
8157 10196 10197 28
8158 10196 10198 28
8159 10196 10199 28
8160 10196 10200 28
8161 10201 10202 28
8162 10201 10203 28
8163 10201 10204 28
8164 10201 10205 28
8165 10206 10207 28
8166 10206 10208 28
8167 10206 10209 28
8168 10206 10210 28
8169 10211 10212 28
8170 10211 10213 28
8171 10211 10214 28
8172 10211 10215 28
8173 10216 10217 28
8174 10216 10218 28
8175 10216 10219 28
8176 10216 10220 28
8177 10221 10222 28
8178 10221 10223 28
8179 10221 10224 28
8180 10221 10225 28
8181 10226 10227 28
8182 10226 10228 28
8183 10226 10229 28
8184 10226 10230 28
8185 10231 10232 28
8186 10231 10233 28
8187 10231 10234 28
8188 10231 10235 28
8189 10236 10237 28
8190 10236 10238 28
8191 10236 10239 28
8192 10236 10240 28
8193 10241 10242 28
8194 10241 10243 28
8195 10241 10244 28
8196 10241 10245 28
8197 10246 10247 28
8198 10246 10248 28
8199 10246 10249 28
8200 10246 10250 28
8201 10251 10252 28
8202 10251 10253 28
8203 10251 10254 28
8204 10251 10255 28
8205 10256 10257 28
8206 10256 10258 28
8207 10256 10259 28
8208 10256 10260 28
8209 10261 10262 28
8210 10261 10263 28
8211 10261 10264 28
8212 10261 10265 28
8213 10266 10267 28
8214 10266 10268 28
8215 10266 10269 28
8216 10266 10270 28
8217 10271 10272 28
8218 10271 10273 28
8219 10271 10274 28
8220 10271 10275 28
8221 10276 10277 28
8222 10276 10278 28
8223 10276 10279 28
8224 10276 10280 28
8225 10281 10282 28
8226 10281 10283 28
8227 10281 10284 28
8228 10281 10285 28
8229 10286 10287 28
8230 10286 10288 28
8231 10286 10289 28
8232 10286 10290 28
8233 10291 10292 28
8234 10291 10293 28
8235 10291 10294 28
8236 10291 10295 28
8237 10296 10297 28
8238 10296 10298 28
8239 10296 10299 28
8240 10296 10300 28
8241 10301 10302 28
8242 10301 10303 28
8243 10301 10304 28
8244 10301 10305 28
8245 10306 10307 28
8246 10306 10308 28
8247 10306 10309 28
8248 10306 10310 28
8249 10311 10312 28
8250 10311 10313 28
8251 10311 10314 28
8252 10311 10315 28
8253 10316 10317 28
8254 10316 10318 28
8255 10316 10319 28
8256 10316 10320 28
8257 10321 10322 28
8258 10321 10323 28
8259 10321 10324 28
8260 10321 10325 28
8261 10326 10327 28
8262 10326 10328 28
8263 10326 10329 28
8264 10326 10330 28
8265 10331 10332 28
8266 10331 10333 28
8267 10331 10334 28
8268 10331 10335 28
8269 10336 10337 28
8270 10336 10338 28
8271 10336 10339 28
8272 10336 10340 28
8273 10341 10342 28
8274 10341 10343 28
8275 10341 10344 28
8276 10341 10345 28
8277 10346 10347 28
8278 10346 10348 28
8279 10346 10349 28
8280 10346 10350 28
8281 10351 10352 28
8282 10351 10353 28
8283 10351 10354 28
8284 10351 10355 28
8285 10356 10357 28
8286 10356 10358 28
8287 10356 10359 28
8288 10356 10360 28
8289 10361 10362 28
8290 10361 10363 28
8291 10361 10364 28
8292 10361 10365 28
8293 10366 10367 28
8294 10366 10368 28
8295 10366 10369 28
8296 10366 10370 28
8297 10371 10372 28
8298 10371 10373 28
8299 10371 10374 28
8300 10371 10375 28
8301 10376 10377 28
8302 10376 10378 28
8303 10376 10379 28
8304 10376 10380 28
8305 10381 10382 28
8306 10381 10383 28
8307 10381 10384 28
8308 10381 10385 28
8309 10386 10387 28
8310 10386 10388 28
8311 10386 10389 28
8312 10386 10390 28
8313 10391 10392 28
8314 10391 10393 28
8315 10391 10394 28
8316 10391 10395 28
8317 10396 10397 28
8318 10396 10398 28
8319 10396 10399 28
8320 10396 10400 28
8321 10401 10402 28
8322 10401 10403 28
8323 10401 10404 28
8324 10401 10405 28
8325 10406 10407 28
8326 10406 10408 28
8327 10406 10409 28
8328 10406 10410 28
8329 10411 10412 28
8330 10411 10413 28
8331 10411 10414 28
8332 10411 10415 28
8333 10416 10417 28
8334 10416 10418 28
8335 10416 10419 28
8336 10416 10420 28
8337 10421 10422 28
8338 10421 10423 28
8339 10421 10424 28
8340 10421 10425 28
8341 10426 10427 28
8342 10426 10428 28
8343 10426 10429 28
8344 10426 10430 28
8345 10431 10432 28
8346 10431 10433 28
8347 10431 10434 28
8348 10431 10435 28
8349 10436 10437 28
8350 10436 10438 28
8351 10436 10439 28
8352 10436 10440 28
8353 10441 10442 28
8354 10441 10443 28
8355 10441 10444 28
8356 10441 10445 28
8357 10446 10447 28
8358 10446 10448 28
8359 10446 10449 28
8360 10446 10450 28
8361 10451 10452 28
8362 10451 10453 28
8363 10451 10454 28
8364 10451 10455 28
8365 10456 10457 28
8366 10456 10458 28
8367 10456 10459 28
8368 10456 10460 28
8369 10461 10462 28
8370 10461 10463 28
8371 10461 10464 28
8372 10461 10465 28
8373 10466 10467 28
8374 10466 10468 28
8375 10466 10469 28
8376 10466 10470 28
8377 10471 10472 28
8378 10471 10473 28
8379 10471 10474 28
8380 10471 10475 28
8381 10476 10477 28
8382 10476 10478 28
8383 10476 10479 28
8384 10476 10480 28
8385 10481 10482 28
8386 10481 10483 28
8387 10481 10484 28
8388 10481 10485 28
8389 10486 10487 28
8390 10486 10488 28
8391 10486 10489 28
8392 10486 10490 28
8393 10491 10492 28
8394 10491 10493 28
8395 10491 10494 28
8396 10491 10495 28
8397 10496 10497 28
8398 10496 10498 28
8399 10496 10499 28
8400 10496 10500 28
8401 10501 10502 28
8402 10501 10503 28
8403 10501 10504 28
8404 10501 10505 28
8405 10506 10507 28
8406 10506 10508 28
8407 10506 10509 28
8408 10506 10510 28
8409 10511 10512 28
8410 10511 10513 28
8411 10511 10514 28
8412 10511 10515 28
8413 10516 10517 28
8414 10516 10518 28
8415 10516 10519 28
8416 10516 10520 28
8417 10521 10522 28
8418 10521 10523 28
8419 10521 10524 28
8420 10521 10525 28
8421 10526 10527 28
8422 10526 10528 28
8423 10526 10529 28
8424 10526 10530 28
8425 10531 10532 28
8426 10531 10533 28
8427 10531 10534 28
8428 10531 10535 28
8429 10536 10537 28
8430 10536 10538 28
8431 10536 10539 28
8432 10536 10540 28
8433 10541 10542 28
8434 10541 10543 28
8435 10541 10544 28
8436 10541 10545 28
8437 10546 10547 28
8438 10546 10548 28
8439 10546 10549 28
8440 10546 10550 28
8441 10551 10552 28
8442 10551 10553 28
8443 10551 10554 28
8444 10551 10555 28
8445 10556 10557 28
8446 10556 10558 28
8447 10556 10559 28
8448 10556 10560 28
8449 10561 10562 28
8450 10561 10563 28
8451 10561 10564 28
8452 10561 10565 28
8453 10566 10567 28
8454 10566 10568 28
8455 10566 10569 28
8456 10566 10570 28
8457 10571 10572 28
8458 10571 10573 28
8459 10571 10574 28
8460 10571 10575 28
8461 10576 10577 28
8462 10576 10578 28
8463 10576 10579 28
8464 10576 10580 28
8465 10581 10582 28
8466 10581 10583 28
8467 10581 10584 28
8468 10581 10585 28
8469 10586 10587 28
8470 10586 10588 28
8471 10586 10589 28
8472 10586 10590 28
8473 10591 10592 28
8474 10591 10593 28
8475 10591 10594 28
8476 10591 10595 28
8477 10596 10597 28
8478 10596 10598 28
8479 10596 10599 28
8480 10596 10600 28
8481 10601 10602 28
8482 10601 10603 28
8483 10601 10604 28
8484 10601 10605 28
8485 10606 10607 28
8486 10606 10608 28
8487 10606 10609 28
8488 10606 10610 28
8489 10611 10612 28
8490 10611 10613 28
8491 10611 10614 28
8492 10611 10615 28
8493 10616 10617 28
8494 10616 10618 28
8495 10616 10619 28
8496 10616 10620 28
8497 10621 10622 28
8498 10621 10623 28
8499 10621 10624 28
8500 10621 10625 28
8501 10626 10627 28
8502 10626 10628 28
8503 10626 10629 28
8504 10626 10630 28
8505 10631 10632 28
8506 10631 10633 28
8507 10631 10634 28
8508 10631 10635 28
8509 10636 10637 28
8510 10636 10638 28
8511 10636 10639 28
8512 10636 10640 28
8513 10641 10642 28
8514 10641 10643 28
8515 10641 10644 28
8516 10641 10645 28
8517 10646 10647 28
8518 10646 10648 28
8519 10646 10649 28
8520 10646 10650 28
8521 10651 10652 28
8522 10651 10653 28
8523 10651 10654 28
8524 10651 10655 28
8525 10656 10657 28
8526 10656 10658 28
8527 10656 10659 28
8528 10656 10660 28
8529 10661 10662 28
8530 10661 10663 28
8531 10661 10664 28
8532 10661 10665 28
8533 10666 10667 28
8534 10666 10668 28
8535 10666 10669 28
8536 10666 10670 28
8537 10671 10672 28
8538 10671 10673 28
8539 10671 10674 28
8540 10671 10675 28
8541 10676 10677 28
8542 10676 10678 28
8543 10676 10679 28
8544 10676 10680 28
8545 10681 10682 28
8546 10681 10683 28
8547 10681 10684 28
8548 10681 10685 28
8549 10686 10687 28
8550 10686 10688 28
8551 10686 10689 28
8552 10686 10690 28
8553 10691 10692 28
8554 10691 10693 28
8555 10691 10694 28
8556 10691 10695 28
8557 10696 10697 28
8558 10696 10698 28
8559 10696 10699 28
8560 10696 10700 28
8561 10701 10702 28
8562 10701 10703 28
8563 10701 10704 28
8564 10701 10705 28
8565 10706 10707 28
8566 10706 10708 28
8567 10706 10709 28
8568 10706 10710 28
8569 10711 10712 28
8570 10711 10713 28
8571 10711 10714 28
8572 10711 10715 28
8573 10716 10717 28
8574 10716 10718 28
8575 10716 10719 28
8576 10716 10720 28
8577 10721 10722 28
8578 10721 10723 28
8579 10721 10724 28
8580 10721 10725 28
8581 10726 10727 28
8582 10726 10728 28
8583 10726 10729 28
8584 10726 10730 28
8585 10731 10732 28
8586 10731 10733 28
8587 10731 10734 28
8588 10731 10735 28
8589 10736 10737 28
8590 10736 10738 28
8591 10736 10739 28
8592 10736 10740 28
8593 10741 10742 28
8594 10741 10743 28
8595 10741 10744 28
8596 10741 10745 28
8597 10746 10747 28
8598 10746 10748 28
8599 10746 10749 28
8600 10746 10750 28
8601 10751 10752 28
8602 10751 10753 28
8603 10751 10754 28
8604 10751 10755 28
8605 10756 10757 28
8606 10756 10758 28
8607 10756 10759 28
8608 10756 10760 28
8609 10761 10762 28
8610 10761 10763 28
8611 10761 10764 28
8612 10761 10765 28
8613 10766 10767 28
8614 10766 10768 28
8615 10766 10769 28
8616 10766 10770 28
8617 10771 10772 28
8618 10771 10773 28
8619 10771 10774 28
8620 10771 10775 28
8621 10776 10777 28
8622 10776 10778 28
8623 10776 10779 28
8624 10776 10780 28
8625 10781 10782 28
8626 10781 10783 28
8627 10781 10784 28
8628 10781 10785 28
8629 10786 10787 28
8630 10786 10788 28
8631 10786 10789 28
8632 10786 10790 28
8633 10791 10792 28
8634 10791 10793 28
8635 10791 10794 28
8636 10791 10795 28
8637 10796 10797 28
8638 10796 10798 28
8639 10796 10799 28
8640 10796 10800 28
8641 10801 10802 28
8642 10801 10803 28
8643 10801 10804 28
8644 10801 10805 28
8645 10806 10807 28
8646 10806 10808 28
8647 10806 10809 28
8648 10806 10810 28
8649 10811 10812 28
8650 10811 10813 28
8651 10811 10814 28
8652 10811 10815 28
8653 10816 10817 28
8654 10816 10818 28
8655 10816 10819 28
8656 10816 10820 28
8657 10821 10822 28
8658 10821 10823 28
8659 10821 10824 28
8660 10821 10825 28
8661 10826 10827 28
8662 10826 10828 28
8663 10826 10829 28
8664 10826 10830 28
8665 10831 10832 28
8666 10831 10833 28
8667 10831 10834 28
8668 10831 10835 28
8669 10836 10837 28
8670 10836 10838 28
8671 10836 10839 28
8672 10836 10840 28
8673 10841 10842 28
8674 10841 10843 28
8675 10841 10844 28
8676 10841 10845 28
8677 10846 10847 28
8678 10846 10848 28
8679 10846 10849 28
8680 10846 10850 28
8681 10851 10852 28
8682 10851 10853 28
8683 10851 10854 28
8684 10851 10855 28
8685 10856 10857 28
8686 10856 10858 28
8687 10856 10859 28
8688 10856 10860 28
8689 10861 10862 28
8690 10861 10863 28
8691 10861 10864 28
8692 10861 10865 28
8693 10866 10867 28
8694 10866 10868 28
8695 10866 10869 28
8696 10866 10870 28
8697 10871 10872 28
8698 10871 10873 28
8699 10871 10874 28
8700 10871 10875 28
8701 10876 10877 28
8702 10876 10878 28
8703 10876 10879 28
8704 10876 10880 28
8705 10881 10882 28
8706 10881 10883 28
8707 10881 10884 28
8708 10881 10885 28
8709 10886 10887 28
8710 10886 10888 28
8711 10886 10889 28
8712 10886 10890 28
8713 10891 10892 28
8714 10891 10893 28
8715 10891 10894 28
8716 10891 10895 28
8717 10896 10897 28
8718 10896 10898 28
8719 10896 10899 28
8720 10896 10900 28
8721 10901 10902 28
8722 10901 10903 28
8723 10901 10904 28
8724 10901 10905 28
8725 10906 10907 28
8726 10906 10908 28
8727 10906 10909 28
8728 10906 10910 28
8729 10911 10912 28
8730 10911 10913 28
8731 10911 10914 28
8732 10911 10915 28
8733 10916 10917 28
8734 10916 10918 28
8735 10916 10919 28
8736 10916 10920 28
8737 10921 10922 28
8738 10921 10923 28
8739 10921 10924 28
8740 10921 10925 28
8741 10926 10927 28
8742 10926 10928 28
8743 10926 10929 28
8744 10926 10930 28
8745 10931 10932 28
8746 10931 10933 28
8747 10931 10934 28
8748 10931 10935 28
8749 10936 10937 28
8750 10936 10938 28
8751 10936 10939 28
8752 10936 10940 28
8753 10941 10942 28
8754 10941 10943 28
8755 10941 10944 28
8756 10941 10945 28
8757 10946 10947 28
8758 10946 10948 28
8759 10946 10949 28
8760 10946 10950 28
8761 10951 10952 28
8762 10951 10953 28
8763 10951 10954 28
8764 10951 10955 28
8765 10956 10957 28
8766 10956 10958 28
8767 10956 10959 28
8768 10956 10960 28
8769 10961 10962 28
8770 10961 10963 28
8771 10961 10964 28
8772 10961 10965 28
8773 10966 10967 28
8774 10966 10968 28
8775 10966 10969 28
8776 10966 10970 28
8777 10971 10972 28
8778 10971 10973 28
8779 10971 10974 28
8780 10971 10975 28
8781 10976 10977 28
8782 10976 10978 28
8783 10976 10979 28
8784 10976 10980 28
8785 10981 10982 28
8786 10981 10983 28
8787 10981 10984 28
8788 10981 10985 28
8789 10986 10987 28
8790 10986 10988 28
8791 10986 10989 28
8792 10986 10990 28
8793 10991 10992 28
8794 10991 10993 28
8795 10991 10994 28
8796 10991 10995 28
8797 10996 10997 28
8798 10996 10998 28
8799 10996 10999 28
8800 10996 11000 28
8801 11001 11002 28
8802 11001 11003 28
8803 11001 11004 28
8804 11001 11005 28
8805 11006 11007 28
8806 11006 11008 28
8807 11006 11009 28
8808 11006 11010 28
8809 11011 11012 28
8810 11011 11013 28
8811 11011 11014 28
8812 11011 11015 28
8813 11016 11017 28
8814 11016 11018 28
8815 11016 11019 28
8816 11016 11020 28
8817 11021 11022 28
8818 11021 11023 28
8819 11021 11024 28
8820 11021 11025 28
8821 11026 11027 28
8822 11026 11028 28
8823 11026 11029 28
8824 11026 11030 28
8825 11031 11032 28
8826 11031 11033 28
8827 11031 11034 28
8828 11031 11035 28
8829 11036 11037 28
8830 11036 11038 28
8831 11036 11039 28
8832 11036 11040 28
8833 11041 11042 28
8834 11041 11043 28
8835 11041 11044 28
8836 11041 11045 28
8837 11046 11047 28
8838 11046 11048 28
8839 11046 11049 28
8840 11046 11050 28
8841 11051 11052 28
8842 11051 11053 28
8843 11051 11054 28
8844 11051 11055 28
8845 11056 11057 28
8846 11056 11058 28
8847 11056 11059 28
8848 11056 11060 28
8849 11061 11062 28
8850 11061 11063 28
8851 11061 11064 28
8852 11061 11065 28
8853 11066 11067 28
8854 11066 11068 28
8855 11066 11069 28
8856 11066 11070 28
8857 11071 11072 28
8858 11071 11073 28
8859 11071 11074 28
8860 11071 11075 28
8861 11076 11077 28
8862 11076 11078 28
8863 11076 11079 28
8864 11076 11080 28
8865 11081 11082 28
8866 11081 11083 28
8867 11081 11084 28
8868 11081 11085 28
8869 11086 11087 28
8870 11086 11088 28
8871 11086 11089 28
8872 11086 11090 28
8873 11091 11092 28
8874 11091 11093 28
8875 11091 11094 28
8876 11091 11095 28
8877 11096 11097 28
8878 11096 11098 28
8879 11096 11099 28
8880 11096 11100 28
8881 11101 11102 28
8882 11101 11103 28
8883 11101 11104 28
8884 11101 11105 28
8885 11106 11107 28
8886 11106 11108 28
8887 11106 11109 28
8888 11106 11110 28
8889 11111 11112 28
8890 11111 11113 28
8891 11111 11114 28
8892 11111 11115 28
8893 11116 11117 28
8894 11116 11118 28
8895 11116 11119 28
8896 11116 11120 28
8897 11121 11122 28
8898 11121 11123 28
8899 11121 11124 28
8900 11121 11125 28
8901 11126 11127 28
8902 11126 11128 28
8903 11126 11129 28
8904 11126 11130 28
8905 11131 11132 28
8906 11131 11133 28
8907 11131 11134 28
8908 11131 11135 28
8909 11136 11137 28
8910 11136 11138 28
8911 11136 11139 28
8912 11136 11140 28
8913 11141 11142 28
8914 11141 11143 28
8915 11141 11144 28
8916 11141 11145 28
8917 11146 11147 28
8918 11146 11148 28
8919 11146 11149 28
8920 11146 11150 28
8921 11151 11152 28
8922 11151 11153 28
8923 11151 11154 28
8924 11151 11155 28
8925 11156 11157 28
8926 11156 11158 28
8927 11156 11159 28
8928 11156 11160 28
8929 11161 11162 28
8930 11161 11163 28
8931 11161 11164 28
8932 11161 11165 28
8933 11166 11167 28
8934 11166 11168 28
8935 11166 11169 28
8936 11166 11170 28
8937 11171 11172 28
8938 11171 11173 28
8939 11171 11174 28
8940 11171 11175 28
8941 11176 11177 28
8942 11176 11178 28
8943 11176 11179 28
8944 11176 11180 28
8945 11181 11182 28
8946 11181 11183 28
8947 11181 11184 28
8948 11181 11185 28
8949 11186 11187 28
8950 11186 11188 28
8951 11186 11189 28
8952 11186 11190 28
8953 11191 11192 28
8954 11191 11193 28
8955 11191 11194 28
8956 11191 11195 28
8957 11196 11197 28
8958 11196 11198 28
8959 11196 11199 28
8960 11196 11200 28
8961 11201 11202 28
8962 11201 11203 28
8963 11201 11204 28
8964 11201 11205 28
8965 11206 11207 28
8966 11206 11208 28
8967 11206 11209 28
8968 11206 11210 28
8969 11211 11212 28
8970 11211 11213 28
8971 11211 11214 28
8972 11211 11215 28
8973 11216 11217 28
8974 11216 11218 28
8975 11216 11219 28
8976 11216 11220 28
8977 11221 11222 28
8978 11221 11223 28
8979 11221 11224 28
8980 11221 11225 28
8981 11226 11227 28
8982 11226 11228 28
8983 11226 11229 28
8984 11226 11230 28
8985 11231 11232 28
8986 11231 11233 28
8987 11231 11234 28
8988 11231 11235 28
8989 11236 11237 28
8990 11236 11238 28
8991 11236 11239 28
8992 11236 11240 28
8993 11241 11242 28
8994 11241 11243 28
8995 11241 11244 28
8996 11241 11245 28
8997 11246 11247 28
8998 11246 11248 28
8999 11246 11249 28
9000 11246 11250 28
9001 11251 11252 28
9002 11251 11253 28
9003 11251 11254 28
9004 11251 11255 28
9005 11256 11257 28
9006 11256 11258 28
9007 11256 11259 28
9008 11256 11260 28
9009 11261 11262 28
9010 11261 11263 28
9011 11261 11264 28
9012 11261 11265 28
9013 11266 11267 28
9014 11266 11268 28
9015 11266 11269 28
9016 11266 11270 28
9017 11271 11272 28
9018 11271 11273 28
9019 11271 11274 28
9020 11271 11275 28
9021 11276 11277 28
9022 11276 11278 28
9023 11276 11279 28
9024 11276 11280 28
9025 11281 11282 28
9026 11281 11283 28
9027 11281 11284 28
9028 11281 11285 28
9029 11286 11287 28
9030 11286 11288 28
9031 11286 11289 28
9032 11286 11290 28
9033 11291 11292 28
9034 11291 11293 28
9035 11291 11294 28
9036 11291 11295 28
9037 11296 11297 28
9038 11296 11298 28
9039 11296 11299 28
9040 11296 11300 28
9041 11301 11302 28
9042 11301 11303 28
9043 11301 11304 28
9044 11301 11305 28
9045 11306 11307 28
9046 11306 11308 28
9047 11306 11309 28
9048 11306 11310 28
9049 11311 11312 28
9050 11311 11313 28
9051 11311 11314 28
9052 11311 11315 28
9053 11316 11317 28
9054 11316 11318 28
9055 11316 11319 28
9056 11316 11320 28
9057 11321 11322 28
9058 11321 11323 28
9059 11321 11324 28
9060 11321 11325 28
9061 11326 11327 28
9062 11326 11328 28
9063 11326 11329 28
9064 11326 11330 28
9065 11331 11332 28
9066 11331 11333 28
9067 11331 11334 28
9068 11331 11335 28
9069 11336 11337 28
9070 11336 11338 28
9071 11336 11339 28
9072 11336 11340 28
9073 11341 11342 28
9074 11341 11343 28
9075 11341 11344 28
9076 11341 11345 28
9077 11346 11347 28
9078 11346 11348 28
9079 11346 11349 28
9080 11346 11350 28
9081 11351 11352 28
9082 11351 11353 28
9083 11351 11354 28
9084 11351 11355 28
9085 11356 11357 28
9086 11356 11358 28
9087 11356 11359 28
9088 11356 11360 28
9089 11361 11362 28
9090 11361 11363 28
9091 11361 11364 28
9092 11361 11365 28
9093 11366 11367 28
9094 11366 11368 28
9095 11366 11369 28
9096 11366 11370 28
9097 11371 11372 28
9098 11371 11373 28
9099 11371 11374 28
9100 11371 11375 28
9101 11376 11377 28
9102 11376 11378 28
9103 11376 11379 28
9104 11376 11380 28
9105 11381 11382 28
9106 11381 11383 28
9107 11381 11384 28
9108 11381 11385 28
9109 11386 11387 28
9110 11386 11388 28
9111 11386 11389 28
9112 11386 11390 28
9113 11391 11392 28
9114 11391 11393 28
9115 11391 11394 28
9116 11391 11395 28
9117 11396 11397 28
9118 11396 11398 28
9119 11396 11399 28
9120 11396 11400 28
9121 11401 11402 28
9122 11401 11403 28
9123 11401 11404 28
9124 11401 11405 28
9125 11406 11407 28
9126 11406 11408 28
9127 11406 11409 28
9128 11406 11410 28
9129 11411 11412 28
9130 11411 11413 28
9131 11411 11414 28
9132 11411 11415 28
9133 11416 11417 28
9134 11416 11418 28
9135 11416 11419 28
9136 11416 11420 28
9137 11421 11422 28
9138 11421 11423 28
9139 11421 11424 28
9140 11421 11425 28
9141 11426 11427 28
9142 11426 11428 28
9143 11426 11429 28
9144 11426 11430 28
9145 11431 11432 28
9146 11431 11433 28
9147 11431 11434 28
9148 11431 11435 28
9149 11436 11437 28
9150 11436 11438 28
9151 11436 11439 28
9152 11436 11440 28
9153 11441 11442 28
9154 11441 11443 28
9155 11441 11444 28
9156 11441 11445 28
9157 11446 11447 28
9158 11446 11448 28
9159 11446 11449 28
9160 11446 11450 28
9161 11451 11452 28
9162 11451 11453 28
9163 11451 11454 28
9164 11451 11455 28
9165 11456 11457 28
9166 11456 11458 28
9167 11456 11459 28
9168 11456 11460 28
9169 11461 11462 28
9170 11461 11463 28
9171 11461 11464 28
9172 11461 11465 28
9173 11466 11467 28
9174 11466 11468 28
9175 11466 11469 28
9176 11466 11470 28
9177 11471 11472 28
9178 11471 11473 28
9179 11471 11474 28
9180 11471 11475 28
9181 11476 11477 28
9182 11476 11478 28
9183 11476 11479 28
9184 11476 11480 28
9185 11481 11482 28
9186 11481 11483 28
9187 11481 11484 28
9188 11481 11485 28
9189 11486 11487 28
9190 11486 11488 28
9191 11486 11489 28
9192 11486 11490 28
9193 11491 11492 28
9194 11491 11493 28
9195 11491 11494 28
9196 11491 11495 28
9197 11496 11497 28
9198 11496 11498 28
9199 11496 11499 28
9200 11496 11500 28
9201 11501 11502 28
9202 11501 11503 28
9203 11501 11504 28
9204 11501 11505 28
9205 11506 11507 28
9206 11506 11508 28
9207 11506 11509 28
9208 11506 11510 28
9209 11511 11512 28
9210 11511 11513 28
9211 11511 11514 28
9212 11511 11515 28
9213 11516 11517 28
9214 11516 11518 28
9215 11516 11519 28
9216 11516 11520 28
9217 11521 11522 28
9218 11521 11523 28
9219 11521 11524 28
9220 11521 11525 28
9221 11526 11527 28
9222 11526 11528 28
9223 11526 11529 28
9224 11526 11530 28
9225 11531 11532 28
9226 11531 11533 28
9227 11531 11534 28
9228 11531 11535 28
9229 11536 11537 28
9230 11536 11538 28
9231 11536 11539 28
9232 11536 11540 28
9233 11541 11542 28
9234 11541 11543 28
9235 11541 11544 28
9236 11541 11545 28
9237 11546 11547 28
9238 11546 11548 28
9239 11546 11549 28
9240 11546 11550 28
9241 11551 11552 28
9242 11551 11553 28
9243 11551 11554 28
9244 11551 11555 28
9245 11556 11557 28
9246 11556 11558 28
9247 11556 11559 28
9248 11556 11560 28
9249 11561 11562 28
9250 11561 11563 28
9251 11561 11564 28
9252 11561 11565 28
9253 11566 11567 28
9254 11566 11568 28
9255 11566 11569 28
9256 11566 11570 28
9257 11571 11572 28
9258 11571 11573 28
9259 11571 11574 28
9260 11571 11575 28
9261 11576 11577 28
9262 11576 11578 28
9263 11576 11579 28
9264 11576 11580 28
9265 11581 11582 28
9266 11581 11583 28
9267 11581 11584 28
9268 11581 11585 28
9269 11586 11587 28
9270 11586 11588 28
9271 11586 11589 28
9272 11586 11590 28
9273 11591 11592 28
9274 11591 11593 28
9275 11591 11594 28
9276 11591 11595 28
9277 11596 11597 28
9278 11596 11598 28
9279 11596 11599 28
9280 11596 11600 28
9281 11601 11602 28
9282 11601 11603 28
9283 11601 11604 28
9284 11601 11605 28
9285 11606 11607 28
9286 11606 11608 28
9287 11606 11609 28
9288 11606 11610 28
9289 11611 11612 28
9290 11611 11613 28
9291 11611 11614 28
9292 11611 11615 28
9293 11616 11617 28
9294 11616 11618 28
9295 11616 11619 28
9296 11616 11620 28
9297 11621 11622 28
9298 11621 11623 28
9299 11621 11624 28
9300 11621 11625 28
9301 11626 11627 28
9302 11626 11628 28
9303 11626 11629 28
9304 11626 11630 28
9305 11631 11632 28
9306 11631 11633 28
9307 11631 11634 28
9308 11631 11635 28
9309 11636 11637 28
9310 11636 11638 28
9311 11636 11639 28
9312 11636 11640 28
9313 11641 11642 28
9314 11641 11643 28
9315 11641 11644 28
9316 11641 11645 28
9317 11646 11647 28
9318 11646 11648 28
9319 11646 11649 28
9320 11646 11650 28
9321 11651 11652 28
9322 11651 11653 28
9323 11651 11654 28
9324 11651 11655 28
9325 11656 11657 28
9326 11656 11658 28
9327 11656 11659 28
9328 11656 11660 28
9329 11661 11662 28
9330 11661 11663 28
9331 11661 11664 28
9332 11661 11665 28
9333 11666 11667 28
9334 11666 11668 28
9335 11666 11669 28
9336 11666 11670 28
9337 11671 11672 28
9338 11671 11673 28
9339 11671 11674 28
9340 11671 11675 28
9341 11676 11677 28
9342 11676 11678 28
9343 11676 11679 28
9344 11676 11680 28
9345 11681 11682 28
9346 11681 11683 28
9347 11681 11684 28
9348 11681 11685 28
9349 11686 11687 28
9350 11686 11688 28
9351 11686 11689 28
9352 11686 11690 28
9353 11691 11692 28
9354 11691 11693 28
9355 11691 11694 28
9356 11691 11695 28
9357 11696 11697 28
9358 11696 11698 28
9359 11696 11699 28
9360 11696 11700 28
9361 11701 11702 28
9362 11701 11703 28
9363 11701 11704 28
9364 11701 11705 28
9365 11706 11707 28
9366 11706 11708 28
9367 11706 11709 28
9368 11706 11710 28
9369 11711 11712 28
9370 11711 11713 28
9371 11711 11714 28
9372 11711 11715 28
9373 11716 11717 28
9374 11716 11718 28
9375 11716 11719 28
9376 11716 11720 28
9377 11721 11722 28
9378 11721 11723 28
9379 11721 11724 28
9380 11721 11725 28
9381 11726 11727 28
9382 11726 11728 28
9383 11726 11729 28
9384 11726 11730 28
9385 11731 11732 28
9386 11731 11733 28
9387 11731 11734 28
9388 11731 11735 28
9389 11736 11737 28
9390 11736 11738 28
9391 11736 11739 28
9392 11736 11740 28
9393 11741 11742 28
9394 11741 11743 28
9395 11741 11744 28
9396 11741 11745 28
9397 11746 11747 28
9398 11746 11748 28
9399 11746 11749 28
9400 11746 11750 28
9401 11751 11752 28
9402 11751 11753 28
9403 11751 11754 28
9404 11751 11755 28
9405 11756 11757 28
9406 11756 11758 28
9407 11756 11759 28
9408 11756 11760 28
9409 11761 11762 28
9410 11761 11763 28
9411 11761 11764 28
9412 11761 11765 28
9413 11766 11767 28
9414 11766 11768 28
9415 11766 11769 28
9416 11766 11770 28
9417 11771 11772 28
9418 11771 11773 28
9419 11771 11774 28
9420 11771 11775 28
9421 11776 11777 28
9422 11776 11778 28
9423 11776 11779 28
9424 11776 11780 28
9425 11781 11782 28
9426 11781 11783 28
9427 11781 11784 28
9428 11781 11785 28
9429 11786 11787 28
9430 11786 11788 28
9431 11786 11789 28
9432 11786 11790 28
9433 11791 11792 28
9434 11791 11793 28
9435 11791 11794 28
9436 11791 11795 28
9437 11796 11797 28
9438 11796 11798 28
9439 11796 11799 28
9440 11796 11800 28
9441 11801 11802 28
9442 11801 11803 28
9443 11801 11804 28
9444 11801 11805 28
9445 11806 11807 28
9446 11806 11808 28
9447 11806 11809 28
9448 11806 11810 28
9449 11811 11812 28
9450 11811 11813 28
9451 11811 11814 28
9452 11811 11815 28
9453 11816 11817 28
9454 11816 11818 28
9455 11816 11819 28
9456 11816 11820 28
9457 11821 11822 28
9458 11821 11823 28
9459 11821 11824 28
9460 11821 11825 28
9461 11826 11827 28
9462 11826 11828 28
9463 11826 11829 28
9464 11826 11830 28
9465 11831 11832 28
9466 11831 11833 28
9467 11831 11834 28
9468 11831 11835 28
9469 11836 11837 28
9470 11836 11838 28
9471 11836 11839 28
9472 11836 11840 28
9473 11841 11842 28
9474 11841 11843 28
9475 11841 11844 28
9476 11841 11845 28
9477 11846 11847 28
9478 11846 11848 28
9479 11846 11849 28
9480 11846 11850 28
9481 11851 11852 28
9482 11851 11853 28
9483 11851 11854 28
9484 11851 11855 28
9485 11856 11857 28
9486 11856 11858 28
9487 11856 11859 28
9488 11856 11860 28
9489 11861 11862 28
9490 11861 11863 28
9491 11861 11864 28
9492 11861 11865 28
9493 11866 11867 28
9494 11866 11868 28
9495 11866 11869 28
9496 11866 11870 28
9497 11871 11872 28
9498 11871 11873 28
9499 11871 11874 28
9500 11871 11875 28
9501 11876 11877 28
9502 11876 11878 28
9503 11876 11879 28
9504 11876 11880 28
9505 11881 11882 28
9506 11881 11883 28
9507 11881 11884 28
9508 11881 11885 28
9509 11886 11887 28
9510 11886 11888 28
9511 11886 11889 28
9512 11886 11890 28
9513 11891 11892 28
9514 11891 11893 28
9515 11891 11894 28
9516 11891 11895 28
9517 11896 11897 28
9518 11896 11898 28
9519 11896 11899 28
9520 11896 11900 28
9521 11901 11902 28
9522 11901 11903 28
9523 11901 11904 28
9524 11901 11905 28
9525 11906 11907 28
9526 11906 11908 28
9527 11906 11909 28
9528 11906 11910 28
9529 11911 11912 28
9530 11911 11913 28
9531 11911 11914 28
9532 11911 11915 28
9533 11916 11917 28
9534 11916 11918 28
9535 11916 11919 28
9536 11916 11920 28
9537 11921 11922 28
9538 11921 11923 28
9539 11921 11924 28
9540 11921 11925 28
9541 11926 11927 28
9542 11926 11928 28
9543 11926 11929 28
9544 11926 11930 28
9545 11931 11932 28
9546 11931 11933 28
9547 11931 11934 28
9548 11931 11935 28
9549 11936 11937 28
9550 11936 11938 28
9551 11936 11939 28
9552 11936 11940 28
9553 11941 11942 28
9554 11941 11943 28
9555 11941 11944 28
9556 11941 11945 28
9557 11946 11947 28
9558 11946 11948 28
9559 11946 11949 28
9560 11946 11950 28
9561 11951 11952 28
9562 11951 11953 28
9563 11951 11954 28
9564 11951 11955 28
9565 11956 11957 28
9566 11956 11958 28
9567 11956 11959 28
9568 11956 11960 28
9569 11961 11962 28
9570 11961 11963 28
9571 11961 11964 28
9572 11961 11965 28
9573 11966 11967 28
9574 11966 11968 28
9575 11966 11969 28
9576 11966 11970 28
9577 11971 11972 28
9578 11971 11973 28
9579 11971 11974 28
9580 11971 11975 28
9581 11976 11977 28
9582 11976 11978 28
9583 11976 11979 28
9584 11976 11980 28
9585 11981 11982 28
9586 11981 11983 28
9587 11981 11984 28
9588 11981 11985 28
9589 11986 11987 28
9590 11986 11988 28
9591 11986 11989 28
9592 11986 11990 28
9593 11991 11992 28
9594 11991 11993 28
9595 11991 11994 28
9596 11991 11995 28
9597 11996 11997 28
9598 11996 11998 28
9599 11996 11999 28
9600 11996 12000 28
9601 12001 12002 28
9602 12001 12003 28
9603 12001 12004 28
9604 12001 12005 28
9605 12006 12007 28
9606 12006 12008 28
9607 12006 12009 28
9608 12006 12010 28
9609 12011 12012 28
9610 12011 12013 28
9611 12011 12014 28
9612 12011 12015 28
9613 12016 12017 28
9614 12016 12018 28
9615 12016 12019 28
9616 12016 12020 28
9617 12021 12022 28
9618 12021 12023 28
9619 12021 12024 28
9620 12021 12025 28
9621 12026 12027 28
9622 12026 12028 28
9623 12026 12029 28
9624 12026 12030 28
9625 12031 12032 28
9626 12031 12033 28
9627 12031 12034 28
9628 12031 12035 28
9629 12036 12037 28
9630 12036 12038 28
9631 12036 12039 28
9632 12036 12040 28
9633 12041 12042 28
9634 12041 12043 28
9635 12041 12044 28
9636 12041 12045 28
9637 12046 12047 28
9638 12046 12048 28
9639 12046 12049 28
9640 12046 12050 28
9641 12051 12052 28
9642 12051 12053 28
9643 12051 12054 28
9644 12051 12055 28
9645 12056 12057 28
9646 12056 12058 28
9647 12056 12059 28
9648 12056 12060 28
9649 12061 12062 28
9650 12061 12063 28
9651 12061 12064 28
9652 12061 12065 28
9653 12066 12067 28
9654 12066 12068 28
9655 12066 12069 28
9656 12066 12070 28
9657 12071 12072 28
9658 12071 12073 28
9659 12071 12074 28
9660 12071 12075 28
9661 12076 12077 28
9662 12076 12078 28
9663 12076 12079 28
9664 12076 12080 28
9665 12081 12082 28
9666 12081 12083 28
9667 12081 12084 28
9668 12081 12085 28
9669 12086 12087 28
9670 12086 12088 28
9671 12086 12089 28
9672 12086 12090 28
9673 12091 12092 28
9674 12091 12093 28
9675 12091 12094 28
9676 12091 12095 28
9677 12096 12097 28
9678 12096 12098 28
9679 12096 12099 28
9680 12096 12100 28
9681 12101 12102 28
9682 12101 12103 28
9683 12101 12104 28
9684 12101 12105 28
9685 12106 12107 28
9686 12106 12108 28
9687 12106 12109 28
9688 12106 12110 28
9689 12111 12112 28
9690 12111 12113 28
9691 12111 12114 28
9692 12111 12115 28
9693 12116 12117 28
9694 12116 12118 28
9695 12116 12119 28
9696 12116 12120 28
9697 12121 12122 28
9698 12121 12123 28
9699 12121 12124 28
9700 12121 12125 28
9701 12126 12127 28
9702 12126 12128 28
9703 12126 12129 28
9704 12126 12130 28
9705 12131 12132 28
9706 12131 12133 28
9707 12131 12134 28
9708 12131 12135 28
9709 12136 12137 28
9710 12136 12138 28
9711 12136 12139 28
9712 12136 12140 28
9713 12141 12142 28
9714 12141 12143 28
9715 12141 12144 28
9716 12141 12145 28
9717 12146 12147 28
9718 12146 12148 28
9719 12146 12149 28
9720 12146 12150 28
9721 12151 12152 28
9722 12151 12153 28
9723 12151 12154 28
9724 12151 12155 28
9725 12156 12157 28
9726 12156 12158 28
9727 12156 12159 28
9728 12156 12160 28
9729 12161 12162 28
9730 12161 12163 28
9731 12161 12164 28
9732 12161 12165 28
9733 12166 12167 28
9734 12166 12168 28
9735 12166 12169 28
9736 12166 12170 28
9737 12171 12172 28
9738 12171 12173 28
9739 12171 12174 28
9740 12171 12175 28
9741 12176 12177 28
9742 12176 12178 28
9743 12176 12179 28
9744 12176 12180 28
9745 12181 12182 28
9746 12181 12183 28
9747 12181 12184 28
9748 12181 12185 28
9749 12186 12187 28
9750 12186 12188 28
9751 12186 12189 28
9752 12186 12190 28
9753 12191 12192 28
9754 12191 12193 28
9755 12191 12194 28
9756 12191 12195 28
9757 12196 12197 28
9758 12196 12198 28
9759 12196 12199 28
9760 12196 12200 28
9761 12201 12202 28
9762 12201 12203 28
9763 12201 12204 28
9764 12201 12205 28
9765 12206 12207 28
9766 12206 12208 28
9767 12206 12209 28
9768 12206 12210 28
9769 12211 12212 28
9770 12211 12213 28
9771 12211 12214 28
9772 12211 12215 28
9773 12216 12217 28
9774 12216 12218 28
9775 12216 12219 28
9776 12216 12220 28
9777 12221 12222 28
9778 12221 12223 28
9779 12221 12224 28
9780 12221 12225 28
9781 12226 12227 28
9782 12226 12228 28
9783 12226 12229 28
9784 12226 12230 28
9785 12231 12232 28
9786 12231 12233 28
9787 12231 12234 28
9788 12231 12235 28
9789 12236 12237 28
9790 12236 12238 28
9791 12236 12239 28
9792 12236 12240 28
9793 12241 12242 28
9794 12241 12243 28
9795 12241 12244 28
9796 12241 12245 28
9797 12246 12247 28
9798 12246 12248 28
9799 12246 12249 28
9800 12246 12250 28
9801 12251 12252 28
9802 12251 12253 28
9803 12251 12254 28
9804 12251 12255 28
9805 12256 12257 28
9806 12256 12258 28
9807 12256 12259 28
9808 12256 12260 28
9809 12261 12262 28
9810 12261 12263 28
9811 12261 12264 28
9812 12261 12265 28
9813 12266 12267 28
9814 12266 12268 28
9815 12266 12269 28
9816 12266 12270 28
9817 12271 12272 28
9818 12271 12273 28
9819 12271 12274 28
9820 12271 12275 28
9821 12276 12277 28
9822 12276 12278 28
9823 12276 12279 28
9824 12276 12280 28
9825 12281 12282 28
9826 12281 12283 28
9827 12281 12284 28
9828 12281 12285 28
9829 12286 12287 28
9830 12286 12288 28
9831 12286 12289 28
9832 12286 12290 28
9833 12291 12292 28
9834 12291 12293 28
9835 12291 12294 28
9836 12291 12295 28
9837 12296 12297 28
9838 12296 12298 28
9839 12296 12299 28
9840 12296 12300 28
9841 12301 12302 28
9842 12301 12303 28
9843 12301 12304 28
9844 12301 12305 28
9845 12306 12307 28
9846 12306 12308 28
9847 12306 12309 28
9848 12306 12310 28
9849 12311 12312 28
9850 12311 12313 28
9851 12311 12314 28
9852 12311 12315 28
9853 12316 12317 28
9854 12316 12318 28
9855 12316 12319 28
9856 12316 12320 28
9857 12321 12322 28
9858 12321 12323 28
9859 12321 12324 28
9860 12321 12325 28
9861 12326 12327 28
9862 12326 12328 28
9863 12326 12329 28
9864 12326 12330 28
9865 12331 12332 28
9866 12331 12333 28
9867 12331 12334 28
9868 12331 12335 28
9869 12336 12337 28
9870 12336 12338 28
9871 12336 12339 28
9872 12336 12340 28
9873 12341 12342 28
9874 12341 12343 28
9875 12341 12344 28
9876 12341 12345 28
9877 12346 12347 28
9878 12346 12348 28
9879 12346 12349 28
9880 12346 12350 28
9881 12351 12352 28
9882 12351 12353 28
9883 12351 12354 28
9884 12351 12355 28
9885 12356 12357 28
9886 12356 12358 28
9887 12356 12359 28
9888 12356 12360 28
9889 12361 12362 28
9890 12361 12363 28
9891 12361 12364 28
9892 12361 12365 28
9893 12366 12367 28
9894 12366 12368 28
9895 12366 12369 28
9896 12366 12370 28
9897 12371 12372 28
9898 12371 12373 28
9899 12371 12374 28
9900 12371 12375 28
9901 12376 12377 28
9902 12376 12378 28
9903 12376 12379 28
9904 12376 12380 28
9905 12381 12382 28
9906 12381 12383 28
9907 12381 12384 28
9908 12381 12385 28
9909 12386 12387 28
9910 12386 12388 28
9911 12386 12389 28
9912 12386 12390 28
9913 12391 12392 28
9914 12391 12393 28
9915 12391 12394 28
9916 12391 12395 28
9917 12396 12397 28
9918 12396 12398 28
9919 12396 12399 28
9920 12396 12400 28
9921 12401 12402 28
9922 12401 12403 28
9923 12401 12404 28
9924 12401 12405 28
9925 12406 12407 28
9926 12406 12408 28
9927 12406 12409 28
9928 12406 12410 28
9929 12411 12412 28
9930 12411 12413 28
9931 12411 12414 28
9932 12411 12415 28
9933 12416 12417 28
9934 12416 12418 28
9935 12416 12419 28
9936 12416 12420 28
9937 12421 12422 28
9938 12421 12423 28
9939 12421 12424 28
9940 12421 12425 28
9941 12426 12427 28
9942 12426 12428 28
9943 12426 12429 28
9944 12426 12430 28
9945 12431 12432 28
9946 12431 12433 28
9947 12431 12434 28
9948 12431 12435 28
9949 12436 12437 28
9950 12436 12438 28
9951 12436 12439 28
9952 12436 12440 28
9953 12441 12442 28
9954 12441 12443 28
9955 12441 12444 28
9956 12441 12445 28
9957 12446 12447 28
9958 12446 12448 28
9959 12446 12449 28
9960 12446 12450 28
9961 12451 12452 28
9962 12451 12453 28
9963 12451 12454 28
9964 12451 12455 28
9965 12456 12457 28
9966 12456 12458 28
9967 12456 12459 28
9968 12456 12460 28
9969 12461 12462 28
9970 12461 12463 28
9971 12461 12464 28
9972 12461 12465 28
9973 12466 12467 28
9974 12466 12468 28
9975 12466 12469 28
9976 12466 12470 28
9977 12471 12472 28
9978 12471 12473 28
9979 12471 12474 28
9980 12471 12475 28
9981 12476 12477 28
9982 12476 12478 28
9983 12476 12479 28
9984 12476 12480 28
9985 12481 12482 28
9986 12481 12483 28
9987 12481 12484 28
9988 12481 12485 28
9989 12486 12487 28
9990 12486 12488 28
9991 12486 12489 28
9992 12486 12490 28
9993 12491 12492 28
9994 12491 12493 28
9995 12491 12494 28
9996 12491 12495 28
9997 12496 12497 28
9998 12496 12498 28
9999 12496 12499 28
10000 12496 12500 28
10001 12501 12502 28
10002 12501 12503 28
10003 12501 12504 28
10004 12501 12505 28
10005 12506 12507 28
10006 12506 12508 28
10007 12506 12509 28
10008 12506 12510 28
10009 12511 12512 28
10010 12511 12513 28
10011 12511 12514 28
10012 12511 12515 28
10013 12516 12517 28
10014 12516 12518 28
10015 12516 12519 28
10016 12516 12520 28
10017 12521 12522 28
10018 12521 12523 28
10019 12521 12524 28
10020 12521 12525 28
10021 12526 12527 28
10022 12526 12528 28
10023 12526 12529 28
10024 12526 12530 28
10025 12531 12532 28
10026 12531 12533 28
10027 12531 12534 28
10028 12531 12535 28
10029 12536 12537 28
10030 12536 12538 28
10031 12536 12539 28
10032 12536 12540 28
10033 12541 12542 28
10034 12541 12543 28
10035 12541 12544 28
10036 12541 12545 28
10037 12546 12547 28
10038 12546 12548 28
10039 12546 12549 28
10040 12546 12550 28
10041 12551 12552 28
10042 12551 12553 28
10043 12551 12554 28
10044 12551 12555 28
10045 12556 12557 28
10046 12556 12558 28
10047 12556 12559 28
10048 12556 12560 28
10049 12561 12562 28
10050 12561 12563 28
10051 12561 12564 28
10052 12561 12565 28
10053 12566 12567 28
10054 12566 12568 28
10055 12566 12569 28
10056 12566 12570 28
10057 12571 12572 28
10058 12571 12573 28
10059 12571 12574 28
10060 12571 12575 28
10061 12576 12577 28
10062 12576 12578 28
10063 12576 12579 28
10064 12576 12580 28
10065 12581 12582 28
10066 12581 12583 28
10067 12581 12584 28
10068 12581 12585 28
10069 12586 12587 28
10070 12586 12588 28
10071 12586 12589 28
10072 12586 12590 28
10073 12591 12592 28
10074 12591 12593 28
10075 12591 12594 28
10076 12591 12595 28
10077 12596 12597 28
10078 12596 12598 28
10079 12596 12599 28
10080 12596 12600 28
10081 12601 12602 28
10082 12601 12603 28
10083 12601 12604 28
10084 12601 12605 28
10085 12606 12607 28
10086 12606 12608 28
10087 12606 12609 28
10088 12606 12610 28
10089 12611 12612 28
10090 12611 12613 28
10091 12611 12614 28
10092 12611 12615 28
10093 12616 12617 28
10094 12616 12618 28
10095 12616 12619 28
10096 12616 12620 28
10097 12621 12622 28
10098 12621 12623 28
10099 12621 12624 28
10100 12621 12625 28
10101 12626 12627 28
10102 12626 12628 28
10103 12626 12629 28
10104 12626 12630 28
10105 12631 12632 28
10106 12631 12633 28
10107 12631 12634 28
10108 12631 12635 28
10109 12636 12637 28
10110 12636 12638 28
10111 12636 12639 28
10112 12636 12640 28
10113 12641 12642 28
10114 12641 12643 28
10115 12641 12644 28
10116 12641 12645 28
10117 12646 12647 28
10118 12646 12648 28
10119 12646 12649 28
10120 12646 12650 28
10121 12651 12652 28
10122 12651 12653 28
10123 12651 12654 28
10124 12651 12655 28
10125 12656 12657 28
10126 12656 12658 28
10127 12656 12659 28
10128 12656 12660 28
10129 12661 12662 28
10130 12661 12663 28
10131 12661 12664 28
10132 12661 12665 28
10133 12666 12667 28
10134 12666 12668 28
10135 12666 12669 28
10136 12666 12670 28
10137 12671 12672 28
10138 12671 12673 28
10139 12671 12674 28
10140 12671 12675 28
10141 12676 12677 28
10142 12676 12678 28
10143 12676 12679 28
10144 12676 12680 28
10145 12681 12682 28
10146 12681 12683 28
10147 12681 12684 28
10148 12681 12685 28
10149 12686 12687 28
10150 12686 12688 28
10151 12686 12689 28
10152 12686 12690 28
10153 12691 12692 28
10154 12691 12693 28
10155 12691 12694 28
10156 12691 12695 28
10157 12696 12697 28
10158 12696 12698 28
10159 12696 12699 28
10160 12696 12700 28
10161 12701 12702 28
10162 12701 12703 28
10163 12701 12704 28
10164 12701 12705 28
10165 12706 12707 28
10166 12706 12708 28
10167 12706 12709 28
10168 12706 12710 28
10169 12711 12712 28
10170 12711 12713 28
10171 12711 12714 28
10172 12711 12715 28
10173 12716 12717 28
10174 12716 12718 28
10175 12716 12719 28
10176 12716 12720 28
10177 12721 12722 28
10178 12721 12723 28
10179 12721 12724 28
10180 12721 12725 28
10181 12726 12727 28
10182 12726 12728 28
10183 12726 12729 28
10184 12726 12730 28
10185 12731 12732 28
10186 12731 12733 28
10187 12731 12734 28
10188 12731 12735 28
10189 12736 12737 28
10190 12736 12738 28
10191 12736 12739 28
10192 12736 12740 28
10193 12741 12742 28
10194 12741 12743 28
10195 12741 12744 28
10196 12741 12745 28
10197 12746 12747 28
10198 12746 12748 28
10199 12746 12749 28
10200 12746 12750 28
10201 12751 12752 28
10202 12751 12753 28
10203 12751 12754 28
10204 12751 12755 28
10205 12756 12757 28
10206 12756 12758 28
10207 12756 12759 28
10208 12756 12760 28
10209 12761 12762 28
10210 12761 12763 28
10211 12761 12764 28
10212 12761 12765 28
10213 12766 12767 28
10214 12766 12768 28
10215 12766 12769 28
10216 12766 12770 28
10217 12771 12772 28
10218 12771 12773 28
10219 12771 12774 28
10220 12771 12775 28
10221 12776 12777 28
10222 12776 12778 28
10223 12776 12779 28
10224 12776 12780 28
10225 12781 12782 28
10226 12781 12783 28
10227 12781 12784 28
10228 12781 12785 28
10229 12786 12787 28
10230 12786 12788 28
10231 12786 12789 28
10232 12786 12790 28
10233 12791 12792 28
10234 12791 12793 28
10235 12791 12794 28
10236 12791 12795 28
10237 12796 12797 28
10238 12796 12798 28
10239 12796 12799 28
10240 12796 12800 28
10241 12801 12802 28
10242 12801 12803 28
10243 12801 12804 28
10244 12801 12805 28
10245 12806 12807 28
10246 12806 12808 28
10247 12806 12809 28
10248 12806 12810 28
10249 12811 12812 28
10250 12811 12813 28
10251 12811 12814 28
10252 12811 12815 28
10253 12816 12817 28
10254 12816 12818 28
10255 12816 12819 28
10256 12816 12820 28
10257 12821 12822 28
10258 12821 12823 28
10259 12821 12824 28
10260 12821 12825 28
10261 12826 12827 28
10262 12826 12828 28
10263 12826 12829 28
10264 12826 12830 28
10265 12831 12832 28
10266 12831 12833 28
10267 12831 12834 28
10268 12831 12835 28
10269 12836 12837 28
10270 12836 12838 28
10271 12836 12839 28
10272 12836 12840 28
10273 12841 12842 28
10274 12841 12843 28
10275 12841 12844 28
10276 12841 12845 28
10277 12846 12847 28
10278 12846 12848 28
10279 12846 12849 28
10280 12846 12850 28
10281 12851 12852 28
10282 12851 12853 28
10283 12851 12854 28
10284 12851 12855 28
10285 12856 12857 28
10286 12856 12858 28
10287 12856 12859 28
10288 12856 12860 28
10289 12861 12862 28
10290 12861 12863 28
10291 12861 12864 28
10292 12861 12865 28
10293 12866 12867 28
10294 12866 12868 28
10295 12866 12869 28
10296 12866 12870 28
10297 12871 12872 28
10298 12871 12873 28
10299 12871 12874 28
10300 12871 12875 28
10301 12876 12877 28
10302 12876 12878 28
10303 12876 12879 28
10304 12876 12880 28
10305 12881 12882 28
10306 12881 12883 28
10307 12881 12884 28
10308 12881 12885 28
10309 12886 12887 28
10310 12886 12888 28
10311 12886 12889 28
10312 12886 12890 28
10313 12891 12892 28
10314 12891 12893 28
10315 12891 12894 28
10316 12891 12895 28
10317 12896 12897 28
10318 12896 12898 28
10319 12896 12899 28
10320 12896 12900 28
10321 12901 12902 28
10322 12901 12903 28
10323 12901 12904 28
10324 12901 12905 28
10325 12906 12907 28
10326 12906 12908 28
10327 12906 12909 28
10328 12906 12910 28
10329 12911 12912 28
10330 12911 12913 28
10331 12911 12914 28
10332 12911 12915 28
10333 12916 12917 28
10334 12916 12918 28
10335 12916 12919 28
10336 12916 12920 28
10337 12921 12922 28
10338 12921 12923 28
10339 12921 12924 28
10340 12921 12925 28
10341 12926 12927 28
10342 12926 12928 28
10343 12926 12929 28
10344 12926 12930 28
10345 12931 12932 28
10346 12931 12933 28
10347 12931 12934 28
10348 12931 12935 28
10349 12936 12937 28
10350 12936 12938 28
10351 12936 12939 28
10352 12936 12940 28
10353 12941 12942 28
10354 12941 12943 28
10355 12941 12944 28
10356 12941 12945 28
10357 12946 12947 28
10358 12946 12948 28
10359 12946 12949 28
10360 12946 12950 28
10361 12951 12952 28
10362 12951 12953 28
10363 12951 12954 28
10364 12951 12955 28
10365 12956 12957 28
10366 12956 12958 28
10367 12956 12959 28
10368 12956 12960 28
10369 12961 12962 28
10370 12961 12963 28
10371 12961 12964 28
10372 12961 12965 28
10373 12966 12967 28
10374 12966 12968 28
10375 12966 12969 28
10376 12966 12970 28
10377 12971 12972 28
10378 12971 12973 28
10379 12971 12974 28
10380 12971 12975 28
10381 12976 12977 28
10382 12976 12978 28
10383 12976 12979 28
10384 12976 12980 28
10385 12981 12982 28
10386 12981 12983 28
10387 12981 12984 28
10388 12981 12985 28
10389 12986 12987 28
10390 12986 12988 28
10391 12986 12989 28
10392 12986 12990 28
10393 12991 12992 28
10394 12991 12993 28
10395 12991 12994 28
10396 12991 12995 28
10397 12996 12997 28
10398 12996 12998 28
10399 12996 12999 28
10400 12996 13000 28
10401 13001 13002 28
10402 13001 13003 28
10403 13001 13004 28
10404 13001 13005 28
10405 13006 13007 28
10406 13006 13008 28
10407 13006 13009 28
10408 13006 13010 28
10409 13011 13012 28
10410 13011 13013 28
10411 13011 13014 28
10412 13011 13015 28
10413 13016 13017 28
10414 13016 13018 28
10415 13016 13019 28
10416 13016 13020 28
10417 13021 13022 28
10418 13021 13023 28
10419 13021 13024 28
10420 13021 13025 28
10421 13026 13027 28
10422 13026 13028 28
10423 13026 13029 28
10424 13026 13030 28
10425 13031 13032 28
10426 13031 13033 28
10427 13031 13034 28
10428 13031 13035 28
10429 13036 13037 28
10430 13036 13038 28
10431 13036 13039 28
10432 13036 13040 28
10433 13041 13042 28
10434 13041 13043 28
10435 13041 13044 28
10436 13041 13045 28
10437 13046 13047 28
10438 13046 13048 28
10439 13046 13049 28
10440 13046 13050 28
10441 13051 13052 28
10442 13051 13053 28
10443 13051 13054 28
10444 13051 13055 28
10445 13056 13057 28
10446 13056 13058 28
10447 13056 13059 28
10448 13056 13060 28
10449 13061 13062 28
10450 13061 13063 28
10451 13061 13064 28
10452 13061 13065 28
10453 13066 13067 28
10454 13066 13068 28
10455 13066 13069 28
10456 13066 13070 28
10457 13071 13072 28
10458 13071 13073 28
10459 13071 13074 28
10460 13071 13075 28
10461 13076 13077 28
10462 13076 13078 28
10463 13076 13079 28
10464 13076 13080 28
10465 13081 13082 28
10466 13081 13083 28
10467 13081 13084 28
10468 13081 13085 28
10469 13086 13087 28
10470 13086 13088 28
10471 13086 13089 28
10472 13086 13090 28
10473 13091 13092 28
10474 13091 13093 28
10475 13091 13094 28
10476 13091 13095 28
10477 13096 13097 28
10478 13096 13098 28
10479 13096 13099 28
10480 13096 13100 28
10481 13101 13102 28
10482 13101 13103 28
10483 13101 13104 28
10484 13101 13105 28
10485 13106 13107 28
10486 13106 13108 28
10487 13106 13109 28
10488 13106 13110 28
10489 13111 13112 28
10490 13111 13113 28
10491 13111 13114 28
10492 13111 13115 28
10493 13116 13117 28
10494 13116 13118 28
10495 13116 13119 28
10496 13116 13120 28
10497 13121 13122 28
10498 13121 13123 28
10499 13121 13124 28
10500 13121 13125 28
10501 13126 13127 28
10502 13126 13128 28
10503 13126 13129 28
10504 13126 13130 28
10505 13131 13132 28
10506 13131 13133 28
10507 13131 13134 28
10508 13131 13135 28
10509 13136 13137 28
10510 13136 13138 28
10511 13136 13139 28
10512 13136 13140 28
10513 13141 13142 28
10514 13141 13143 28
10515 13141 13144 28
10516 13141 13145 28
10517 13146 13147 28
10518 13146 13148 28
10519 13146 13149 28
10520 13146 13150 28
10521 13151 13152 28
10522 13151 13153 28
10523 13151 13154 28
10524 13151 13155 28
10525 13156 13157 28
10526 13156 13158 28
10527 13156 13159 28
10528 13156 13160 28
10529 13161 13162 28
10530 13161 13163 28
10531 13161 13164 28
10532 13161 13165 28
10533 13166 13167 28
10534 13166 13168 28
10535 13166 13169 28
10536 13166 13170 28
10537 13171 13172 28
10538 13171 13173 28
10539 13171 13174 28
10540 13171 13175 28
10541 13176 13177 28
10542 13176 13178 28
10543 13176 13179 28
10544 13176 13180 28
10545 13181 13182 28
10546 13181 13183 28
10547 13181 13184 28
10548 13181 13185 28
10549 13186 13187 28
10550 13186 13188 28
10551 13186 13189 28
10552 13186 13190 28
10553 13191 13192 28
10554 13191 13193 28
10555 13191 13194 28
10556 13191 13195 28
10557 13196 13197 28
10558 13196 13198 28
10559 13196 13199 28
10560 13196 13200 28
10561 13201 13202 28
10562 13201 13203 28
10563 13201 13204 28
10564 13201 13205 28
10565 13206 13207 28
10566 13206 13208 28
10567 13206 13209 28
10568 13206 13210 28
10569 13211 13212 28
10570 13211 13213 28
10571 13211 13214 28
10572 13211 13215 28
10573 13216 13217 28
10574 13216 13218 28
10575 13216 13219 28
10576 13216 13220 28
10577 13221 13222 28
10578 13221 13223 28
10579 13221 13224 28
10580 13221 13225 28
10581 13226 13227 28
10582 13226 13228 28
10583 13226 13229 28
10584 13226 13230 28
10585 13231 13232 28
10586 13231 13233 28
10587 13231 13234 28
10588 13231 13235 28
10589 13236 13237 28
10590 13236 13238 28
10591 13236 13239 28
10592 13236 13240 28
10593 13241 13242 28
10594 13241 13243 28
10595 13241 13244 28
10596 13241 13245 28
10597 13246 13247 28
10598 13246 13248 28
10599 13246 13249 28
10600 13246 13250 28
10601 13251 13252 28
10602 13251 13253 28
10603 13251 13254 28
10604 13251 13255 28
10605 13256 13257 28
10606 13256 13258 28
10607 13256 13259 28
10608 13256 13260 28
10609 13261 13262 28
10610 13261 13263 28
10611 13261 13264 28
10612 13261 13265 28
10613 13266 13267 28
10614 13266 13268 28
10615 13266 13269 28
10616 13266 13270 28
10617 13271 13272 28
10618 13271 13273 28
10619 13271 13274 28
10620 13271 13275 28
10621 13276 13277 28
10622 13276 13278 28
10623 13276 13279 28
10624 13276 13280 28
10625 13281 13282 28
10626 13281 13283 28
10627 13281 13284 28
10628 13281 13285 28
10629 13286 13287 28
10630 13286 13288 28
10631 13286 13289 28
10632 13286 13290 28
10633 13291 13292 28
10634 13291 13293 28
10635 13291 13294 28
10636 13291 13295 28
10637 13296 13297 28
10638 13296 13298 28
10639 13296 13299 28
10640 13296 13300 28
10641 13301 13302 28
10642 13301 13303 28
10643 13301 13304 28
10644 13301 13305 28
10645 13306 13307 28
10646 13306 13308 28
10647 13306 13309 28
10648 13306 13310 28
10649 13311 13312 28
10650 13311 13313 28
10651 13311 13314 28
10652 13311 13315 28
10653 13316 13317 28
10654 13316 13318 28
10655 13316 13319 28
10656 13316 13320 28
10657 13321 13322 28
10658 13321 13323 28
10659 13321 13324 28
10660 13321 13325 28
10661 13326 13327 28
10662 13326 13328 28
10663 13326 13329 28
10664 13326 13330 28
10665 13331 13332 28
10666 13331 13333 28
10667 13331 13334 28
10668 13331 13335 28
10669 13336 13337 28
10670 13336 13338 28
10671 13336 13339 28
10672 13336 13340 28
10673 13341 13342 28
10674 13341 13343 28
10675 13341 13344 28
10676 13341 13345 28
10677 13346 13347 28
10678 13346 13348 28
10679 13346 13349 28
10680 13346 13350 28
10681 13351 13352 28
10682 13351 13353 28
10683 13351 13354 28
10684 13351 13355 28
10685 13356 13357 28
10686 13356 13358 28
10687 13356 13359 28
10688 13356 13360 28
10689 13361 13362 28
10690 13361 13363 28
10691 13361 13364 28
10692 13361 13365 28
10693 13366 13367 28
10694 13366 13368 28
10695 13366 13369 28
10696 13366 13370 28
10697 13371 13372 28
10698 13371 13373 28
10699 13371 13374 28
10700 13371 13375 28
10701 13376 13377 28
10702 13376 13378 28
10703 13376 13379 28
10704 13376 13380 28
10705 13381 13382 28
10706 13381 13383 28
10707 13381 13384 28
10708 13381 13385 28
10709 13386 13387 28
10710 13386 13388 28
10711 13386 13389 28
10712 13386 13390 28
10713 13391 13392 28
10714 13391 13393 28
10715 13391 13394 28
10716 13391 13395 28
10717 13396 13397 28
10718 13396 13398 28
10719 13396 13399 28
10720 13396 13400 28
10721 13401 13402 28
10722 13401 13403 28
10723 13401 13404 28
10724 13401 13405 28
10725 13406 13407 28
10726 13406 13408 28
10727 13406 13409 28
10728 13406 13410 28
10729 13411 13412 28
10730 13411 13413 28
10731 13411 13414 28
10732 13411 13415 28
10733 13416 13417 28
10734 13416 13418 28
10735 13416 13419 28
10736 13416 13420 28
10737 13421 13422 28
10738 13421 13423 28
10739 13421 13424 28
10740 13421 13425 28
10741 13426 13427 28
10742 13426 13428 28
10743 13426 13429 28
10744 13426 13430 28
10745 13431 13432 28
10746 13431 13433 28
10747 13431 13434 28
10748 13431 13435 28
10749 13436 13437 28
10750 13436 13438 28
10751 13436 13439 28
10752 13436 13440 28
10753 13441 13442 28
10754 13441 13443 28
10755 13441 13444 28
10756 13441 13445 28
10757 13446 13447 28
10758 13446 13448 28
10759 13446 13449 28
10760 13446 13450 28
10761 13451 13452 28
10762 13451 13453 28
10763 13451 13454 28
10764 13451 13455 28
10765 13456 13457 28
10766 13456 13458 28
10767 13456 13459 28
10768 13456 13460 28
10769 13461 13462 28
10770 13461 13463 28
10771 13461 13464 28
10772 13461 13465 28
10773 13466 13467 28
10774 13466 13468 28
10775 13466 13469 28
10776 13466 13470 28
10777 13471 13472 28
10778 13471 13473 28
10779 13471 13474 28
10780 13471 13475 28
10781 13476 13477 28
10782 13476 13478 28
10783 13476 13479 28
10784 13476 13480 28
10785 13481 13482 28
10786 13481 13483 28
10787 13481 13484 28
10788 13481 13485 28
10789 13486 13487 28
10790 13486 13488 28
10791 13486 13489 28
10792 13486 13490 28
10793 13491 13492 28
10794 13491 13493 28
10795 13491 13494 28
10796 13491 13495 28
10797 13496 13497 28
10798 13496 13498 28
10799 13496 13499 28
10800 13496 13500 28
10801 13501 13502 28
10802 13501 13503 28
10803 13501 13504 28
10804 13501 13505 28
10805 13506 13507 28
10806 13506 13508 28
10807 13506 13509 28
10808 13506 13510 28
10809 13511 13512 28
10810 13511 13513 28
10811 13511 13514 28
10812 13511 13515 28
10813 13516 13517 28
10814 13516 13518 28
10815 13516 13519 28
10816 13516 13520 28
10817 13521 13522 28
10818 13521 13523 28
10819 13521 13524 28
10820 13521 13525 28
10821 13526 13527 28
10822 13526 13528 28
10823 13526 13529 28
10824 13526 13530 28
10825 13531 13532 28
10826 13531 13533 28
10827 13531 13534 28
10828 13531 13535 28
10829 13536 13537 28
10830 13536 13538 28
10831 13536 13539 28
10832 13536 13540 28
10833 13541 13542 28
10834 13541 13543 28
10835 13541 13544 28
10836 13541 13545 28
10837 13546 13547 28
10838 13546 13548 28
10839 13546 13549 28
10840 13546 13550 28
10841 13551 13552 28
10842 13551 13553 28
10843 13551 13554 28
10844 13551 13555 28
10845 13556 13557 28
10846 13556 13558 28
10847 13556 13559 28
10848 13556 13560 28
10849 13561 13562 28
10850 13561 13563 28
10851 13561 13564 28
10852 13561 13565 28
10853 13566 13567 28
10854 13566 13568 28
10855 13566 13569 28
10856 13566 13570 28
10857 13571 13572 28
10858 13571 13573 28
10859 13571 13574 28
10860 13571 13575 28
10861 13576 13577 28
10862 13576 13578 28
10863 13576 13579 28
10864 13576 13580 28
10865 13581 13582 28
10866 13581 13583 28
10867 13581 13584 28
10868 13581 13585 28
10869 13586 13587 28
10870 13586 13588 28
10871 13586 13589 28
10872 13586 13590 28
10873 13591 13592 28
10874 13591 13593 28
10875 13591 13594 28
10876 13591 13595 28
10877 13596 13597 28
10878 13596 13598 28
10879 13596 13599 28
10880 13596 13600 28
10881 13601 13602 28
10882 13601 13603 28
10883 13601 13604 28
10884 13601 13605 28
10885 13606 13607 28
10886 13606 13608 28
10887 13606 13609 28
10888 13606 13610 28
10889 13611 13612 28
10890 13611 13613 28
10891 13611 13614 28
10892 13611 13615 28
10893 13616 13617 28
10894 13616 13618 28
10895 13616 13619 28
10896 13616 13620 28
10897 13621 13622 28
10898 13621 13623 28
10899 13621 13624 28
10900 13621 13625 28
10901 13626 13627 28
10902 13626 13628 28
10903 13626 13629 28
10904 13626 13630 28
10905 13631 13632 28
10906 13631 13633 28
10907 13631 13634 28
10908 13631 13635 28
10909 13636 13637 28
10910 13636 13638 28
10911 13636 13639 28
10912 13636 13640 28
10913 13641 13642 28
10914 13641 13643 28
10915 13641 13644 28
10916 13641 13645 28
10917 13646 13647 28
10918 13646 13648 28
10919 13646 13649 28
10920 13646 13650 28
10921 13651 13652 28
10922 13651 13653 28
10923 13651 13654 28
10924 13651 13655 28
10925 13656 13657 28
10926 13656 13658 28
10927 13656 13659 28
10928 13656 13660 28
10929 13661 13662 28
10930 13661 13663 28
10931 13661 13664 28
10932 13661 13665 28
10933 13666 13667 28
10934 13666 13668 28
10935 13666 13669 28
10936 13666 13670 28
10937 13671 13672 28
10938 13671 13673 28
10939 13671 13674 28
10940 13671 13675 28
10941 13676 13677 28
10942 13676 13678 28
10943 13676 13679 28
10944 13676 13680 28
10945 13681 13682 28
10946 13681 13683 28
10947 13681 13684 28
10948 13681 13685 28
10949 13686 13687 28
10950 13686 13688 28
10951 13686 13689 28
10952 13686 13690 28
10953 13691 13692 28
10954 13691 13693 28
10955 13691 13694 28
10956 13691 13695 28
10957 13696 13697 28
10958 13696 13698 28
10959 13696 13699 28
10960 13696 13700 28
10961 13701 13702 28
10962 13701 13703 28
10963 13701 13704 28
10964 13701 13705 28
10965 13706 13707 28
10966 13706 13708 28
10967 13706 13709 28
10968 13706 13710 28
10969 13711 13712 28
10970 13711 13713 28
10971 13711 13714 28
10972 13711 13715 28
10973 13716 13717 28
10974 13716 13718 28
10975 13716 13719 28
10976 13716 13720 28
10977 13721 13722 28
10978 13721 13723 28
10979 13721 13724 28
10980 13721 13725 28
10981 13726 13727 28
10982 13726 13728 28
10983 13726 13729 28
10984 13726 13730 28
10985 13731 13732 28
10986 13731 13733 28
10987 13731 13734 28
10988 13731 13735 28
10989 13736 13737 28
10990 13736 13738 28
10991 13736 13739 28
10992 13736 13740 28
10993 13741 13742 28
10994 13741 13743 28
10995 13741 13744 28
10996 13741 13745 28
10997 13746 13747 28
10998 13746 13748 28
10999 13746 13749 28
11000 13746 13750 28
11001 13751 13752 28
11002 13751 13753 28
11003 13751 13754 28
11004 13751 13755 28
11005 13756 13757 28
11006 13756 13758 28
11007 13756 13759 28
11008 13756 13760 28
11009 13761 13762 28
11010 13761 13763 28
11011 13761 13764 28
11012 13761 13765 28
11013 13766 13767 28
11014 13766 13768 28
11015 13766 13769 28
11016 13766 13770 28
11017 13771 13772 28
11018 13771 13773 28
11019 13771 13774 28
11020 13771 13775 28
11021 13776 13777 28
11022 13776 13778 28
11023 13776 13779 28
11024 13776 13780 28
11025 13781 13782 28
11026 13781 13783 28
11027 13781 13784 28
11028 13781 13785 28
11029 13786 13787 28
11030 13786 13788 28
11031 13786 13789 28
11032 13786 13790 28
11033 13791 13792 28
11034 13791 13793 28
11035 13791 13794 28
11036 13791 13795 28
11037 13796 13797 28
11038 13796 13798 28
11039 13796 13799 28
11040 13796 13800 28
11041 13801 13802 28
11042 13801 13803 28
11043 13801 13804 28
11044 13801 13805 28
11045 13806 13807 28
11046 13806 13808 28
11047 13806 13809 28
11048 13806 13810 28
11049 13811 13812 28
11050 13811 13813 28
11051 13811 13814 28
11052 13811 13815 28
11053 13816 13817 28
11054 13816 13818 28
11055 13816 13819 28
11056 13816 13820 28
11057 13821 13822 28
11058 13821 13823 28
11059 13821 13824 28
11060 13821 13825 28
11061 13826 13827 28
11062 13826 13828 28
11063 13826 13829 28
11064 13826 13830 28
11065 13831 13832 28
11066 13831 13833 28
11067 13831 13834 28
11068 13831 13835 28
11069 13836 13837 28
11070 13836 13838 28
11071 13836 13839 28
11072 13836 13840 28
11073 13841 13842 28
11074 13841 13843 28
11075 13841 13844 28
11076 13841 13845 28
11077 13846 13847 28
11078 13846 13848 28
11079 13846 13849 28
11080 13846 13850 28
11081 13851 13852 28
11082 13851 13853 28
11083 13851 13854 28
11084 13851 13855 28
11085 13856 13857 28
11086 13856 13858 28
11087 13856 13859 28
11088 13856 13860 28
11089 13861 13862 28
11090 13861 13863 28
11091 13861 13864 28
11092 13861 13865 28
11093 13866 13867 28
11094 13866 13868 28
11095 13866 13869 28
11096 13866 13870 28
11097 13871 13872 28
11098 13871 13873 28
11099 13871 13874 28
11100 13871 13875 28
11101 13876 13877 28
11102 13876 13878 28
11103 13876 13879 28
11104 13876 13880 28
11105 13881 13882 28
11106 13881 13883 28
11107 13881 13884 28
11108 13881 13885 28
11109 13886 13887 28
11110 13886 13888 28
11111 13886 13889 28
11112 13886 13890 28
11113 13891 13892 28
11114 13891 13893 28
11115 13891 13894 28
11116 13891 13895 28
11117 13896 13897 28
11118 13896 13898 28
11119 13896 13899 28
11120 13896 13900 28
11121 13901 13902 28
11122 13901 13903 28
11123 13901 13904 28
11124 13901 13905 28
11125 13906 13907 28
11126 13906 13908 28
11127 13906 13909 28
11128 13906 13910 28
11129 13911 13912 28
11130 13911 13913 28
11131 13911 13914 28
11132 13911 13915 28
11133 13916 13917 28
11134 13916 13918 28
11135 13916 13919 28
11136 13916 13920 28
11137 13921 13922 28
11138 13921 13923 28
11139 13921 13924 28
11140 13921 13925 28
11141 13926 13927 28
11142 13926 13928 28
11143 13926 13929 28
11144 13926 13930 28
11145 13931 13932 28
11146 13931 13933 28
11147 13931 13934 28
11148 13931 13935 28
11149 13936 13937 28
11150 13936 13938 28
11151 13936 13939 28
11152 13936 13940 28
11153 13941 13942 28
11154 13941 13943 28
11155 13941 13944 28
11156 13941 13945 28
11157 13946 13947 28
11158 13946 13948 28
11159 13946 13949 28
11160 13946 13950 28
11161 13951 13952 28
11162 13951 13953 28
11163 13951 13954 28
11164 13951 13955 28
11165 13956 13957 28
11166 13956 13958 28
11167 13956 13959 28
11168 13956 13960 28
11169 13961 13962 28
11170 13961 13963 28
11171 13961 13964 28
11172 13961 13965 28
11173 13966 13967 28
11174 13966 13968 28
11175 13966 13969 28
11176 13966 13970 28
11177 13971 13972 28
11178 13971 13973 28
11179 13971 13974 28
11180 13971 13975 28
11181 13976 13977 28
11182 13976 13978 28
11183 13976 13979 28
11184 13976 13980 28
11185 13981 13982 28
11186 13981 13983 28
11187 13981 13984 28
11188 13981 13985 28
11189 13986 13987 28
11190 13986 13988 28
11191 13986 13989 28
11192 13986 13990 28
11193 13991 13992 28
11194 13991 13993 28
11195 13991 13994 28
11196 13991 13995 28
11197 13996 13997 28
11198 13996 13998 28
11199 13996 13999 28
11200 13996 14000 28
11201 14001 14002 28
11202 14001 14003 28
11203 14001 14004 28
11204 14001 14005 28
11205 14006 14007 28
11206 14006 14008 28
11207 14006 14009 28
11208 14006 14010 28
11209 14011 14012 28
11210 14011 14013 28
11211 14011 14014 28
11212 14011 14015 28
11213 14016 14017 28
11214 14016 14018 28
11215 14016 14019 28
11216 14016 14020 28
11217 14021 14022 28
11218 14021 14023 28
11219 14021 14024 28
11220 14021 14025 28
11221 14026 14027 28
11222 14026 14028 28
11223 14026 14029 28
11224 14026 14030 28
11225 14031 14032 28
11226 14031 14033 28
11227 14031 14034 28
11228 14031 14035 28
11229 14036 14037 28
11230 14036 14038 28
11231 14036 14039 28
11232 14036 14040 28
11233 14041 14042 28
11234 14041 14043 28
11235 14041 14044 28
11236 14041 14045 28
11237 14046 14047 28
11238 14046 14048 28
11239 14046 14049 28
11240 14046 14050 28
11241 14051 14052 28
11242 14051 14053 28
11243 14051 14054 28
11244 14051 14055 28
11245 14056 14057 28
11246 14056 14058 28
11247 14056 14059 28
11248 14056 14060 28
11249 14061 14062 28
11250 14061 14063 28
11251 14061 14064 28
11252 14061 14065 28
11253 14066 14067 28
11254 14066 14068 28
11255 14066 14069 28
11256 14066 14070 28
11257 14071 14072 28
11258 14071 14073 28
11259 14071 14074 28
11260 14071 14075 28
11261 14076 14077 28
11262 14076 14078 28
11263 14076 14079 28
11264 14076 14080 28
11265 14081 14082 28
11266 14081 14083 28
11267 14081 14084 28
11268 14081 14085 28
11269 14086 14087 28
11270 14086 14088 28
11271 14086 14089 28
11272 14086 14090 28
11273 14091 14092 28
11274 14091 14093 28
11275 14091 14094 28
11276 14091 14095 28
11277 14096 14097 28
11278 14096 14098 28
11279 14096 14099 28
11280 14096 14100 28
11281 14101 14102 28
11282 14101 14103 28
11283 14101 14104 28
11284 14101 14105 28
11285 14106 14107 28
11286 14106 14108 28
11287 14106 14109 28
11288 14106 14110 28
11289 14111 14112 28
11290 14111 14113 28
11291 14111 14114 28
11292 14111 14115 28
11293 14116 14117 28
11294 14116 14118 28
11295 14116 14119 28
11296 14116 14120 28
11297 14121 14122 28
11298 14121 14123 28
11299 14121 14124 28
11300 14121 14125 28
11301 14126 14127 28
11302 14126 14128 28
11303 14126 14129 28
11304 14126 14130 28
11305 14131 14132 28
11306 14131 14133 28
11307 14131 14134 28
11308 14131 14135 28
11309 14136 14137 28
11310 14136 14138 28
11311 14136 14139 28
11312 14136 14140 28
11313 14141 14142 28
11314 14141 14143 28
11315 14141 14144 28
11316 14141 14145 28
11317 14146 14147 28
11318 14146 14148 28
11319 14146 14149 28
11320 14146 14150 28
11321 14151 14152 28
11322 14151 14153 28
11323 14151 14154 28
11324 14151 14155 28
11325 14156 14157 28
11326 14156 14158 28
11327 14156 14159 28
11328 14156 14160 28
11329 14161 14162 28
11330 14161 14163 28
11331 14161 14164 28
11332 14161 14165 28
11333 14166 14167 28
11334 14166 14168 28
11335 14166 14169 28
11336 14166 14170 28
11337 14171 14172 28
11338 14171 14173 28
11339 14171 14174 28
11340 14171 14175 28
11341 14176 14177 28
11342 14176 14178 28
11343 14176 14179 28
11344 14176 14180 28
11345 14181 14182 28
11346 14181 14183 28
11347 14181 14184 28
11348 14181 14185 28
11349 14186 14187 28
11350 14186 14188 28
11351 14186 14189 28
11352 14186 14190 28
11353 14191 14192 28
11354 14191 14193 28
11355 14191 14194 28
11356 14191 14195 28
11357 14196 14197 28
11358 14196 14198 28
11359 14196 14199 28
11360 14196 14200 28
11361 14201 14202 28
11362 14201 14203 28
11363 14201 14204 28
11364 14201 14205 28
11365 14206 14207 28
11366 14206 14208 28
11367 14206 14209 28
11368 14206 14210 28
11369 14211 14212 28
11370 14211 14213 28
11371 14211 14214 28
11372 14211 14215 28
11373 14216 14217 28
11374 14216 14218 28
11375 14216 14219 28
11376 14216 14220 28
11377 14221 14222 28
11378 14221 14223 28
11379 14221 14224 28
11380 14221 14225 28
11381 14226 14227 28
11382 14226 14228 28
11383 14226 14229 28
11384 14226 14230 28
11385 14231 14232 28
11386 14231 14233 28
11387 14231 14234 28
11388 14231 14235 28
11389 14236 14237 28
11390 14236 14238 28
11391 14236 14239 28
11392 14236 14240 28
11393 14241 14242 28
11394 14241 14243 28
11395 14241 14244 28
11396 14241 14245 28
11397 14246 14247 28
11398 14246 14248 28
11399 14246 14249 28
11400 14246 14250 28
11401 14251 14252 28
11402 14251 14253 28
11403 14251 14254 28
11404 14251 14255 28
11405 14256 14257 28
11406 14256 14258 28
11407 14256 14259 28
11408 14256 14260 28
11409 14261 14262 28
11410 14261 14263 28
11411 14261 14264 28
11412 14261 14265 28
11413 14266 14267 28
11414 14266 14268 28
11415 14266 14269 28
11416 14266 14270 28
11417 14271 14272 28
11418 14271 14273 28
11419 14271 14274 28
11420 14271 14275 28
11421 14276 14277 28
11422 14276 14278 28
11423 14276 14279 28
11424 14276 14280 28
11425 14281 14282 28
11426 14281 14283 28
11427 14281 14284 28
11428 14281 14285 28
11429 14286 14287 28
11430 14286 14288 28
11431 14286 14289 28
11432 14286 14290 28
11433 14291 14292 28
11434 14291 14293 28
11435 14291 14294 28
11436 14291 14295 28
11437 14296 14297 28
11438 14296 14298 28
11439 14296 14299 28
11440 14296 14300 28
11441 14301 14302 28
11442 14301 14303 28
11443 14301 14304 28
11444 14301 14305 28
11445 14306 14307 28
11446 14306 14308 28
11447 14306 14309 28
11448 14306 14310 28
11449 14311 14312 28
11450 14311 14313 28
11451 14311 14314 28
11452 14311 14315 28
11453 14316 14317 28
11454 14316 14318 28
11455 14316 14319 28
11456 14316 14320 28
11457 14321 14322 28
11458 14321 14323 28
11459 14321 14324 28
11460 14321 14325 28
11461 14326 14327 28
11462 14326 14328 28
11463 14326 14329 28
11464 14326 14330 28
11465 14331 14332 28
11466 14331 14333 28
11467 14331 14334 28
11468 14331 14335 28
11469 14336 14337 28
11470 14336 14338 28
11471 14336 14339 28
11472 14336 14340 28
11473 14341 14342 28
11474 14341 14343 28
11475 14341 14344 28
11476 14341 14345 28
11477 14346 14347 28
11478 14346 14348 28
11479 14346 14349 28
11480 14346 14350 28
11481 14351 14352 28
11482 14351 14353 28
11483 14351 14354 28
11484 14351 14355 28
11485 14356 14357 28
11486 14356 14358 28
11487 14356 14359 28
11488 14356 14360 28
11489 14361 14362 28
11490 14361 14363 28
11491 14361 14364 28
11492 14361 14365 28
11493 14366 14367 28
11494 14366 14368 28
11495 14366 14369 28
11496 14366 14370 28
11497 14371 14372 28
11498 14371 14373 28
11499 14371 14374 28
11500 14371 14375 28
11501 14376 14377 28
11502 14376 14378 28
11503 14376 14379 28
11504 14376 14380 28
11505 14381 14382 28
11506 14381 14383 28
11507 14381 14384 28
11508 14381 14385 28
11509 14386 14387 28
11510 14386 14388 28
11511 14386 14389 28
11512 14386 14390 28
11513 14391 14392 28
11514 14391 14393 28
11515 14391 14394 28
11516 14391 14395 28
11517 14396 14397 28
11518 14396 14398 28
11519 14396 14399 28
11520 14396 14400 28
11521 14401 14402 28
11522 14401 14403 28
11523 14401 14404 28
11524 14401 14405 28
11525 14406 14407 28
11526 14406 14408 28
11527 14406 14409 28
11528 14406 14410 28
11529 14411 14412 28
11530 14411 14413 28
11531 14411 14414 28
11532 14411 14415 28
11533 14416 14417 28
11534 14416 14418 28
11535 14416 14419 28
11536 14416 14420 28
11537 14421 14422 28
11538 14421 14423 28
11539 14421 14424 28
11540 14421 14425 28
11541 14426 14427 28
11542 14426 14428 28
11543 14426 14429 28
11544 14426 14430 28
11545 14431 14432 28
11546 14431 14433 28
11547 14431 14434 28
11548 14431 14435 28
11549 14436 14437 28
11550 14436 14438 28
11551 14436 14439 28
11552 14436 14440 28
11553 14441 14442 28
11554 14441 14443 28
11555 14441 14444 28
11556 14441 14445 28
11557 14446 14447 28
11558 14446 14448 28
11559 14446 14449 28
11560 14446 14450 28
11561 14451 14452 28
11562 14451 14453 28
11563 14451 14454 28
11564 14451 14455 28
11565 14456 14457 28
11566 14456 14458 28
11567 14456 14459 28
11568 14456 14460 28
11569 14461 14462 28
11570 14461 14463 28
11571 14461 14464 28
11572 14461 14465 28
11573 14466 14467 28
11574 14466 14468 28
11575 14466 14469 28
11576 14466 14470 28
11577 14471 14472 28
11578 14471 14473 28
11579 14471 14474 28
11580 14471 14475 28
11581 14476 14477 28
11582 14476 14478 28
11583 14476 14479 28
11584 14476 14480 28
11585 14481 14482 28
11586 14481 14483 28
11587 14481 14484 28
11588 14481 14485 28
11589 14486 14487 28
11590 14486 14488 28
11591 14486 14489 28
11592 14486 14490 28
11593 14491 14492 28
11594 14491 14493 28
11595 14491 14494 28
11596 14491 14495 28
11597 14496 14497 28
11598 14496 14498 28
11599 14496 14499 28
11600 14496 14500 28
11601 14501 14502 28
11602 14501 14503 28
11603 14501 14504 28
11604 14501 14505 28
11605 14506 14507 28
11606 14506 14508 28
11607 14506 14509 28
11608 14506 14510 28
11609 14511 14512 28
11610 14511 14513 28
11611 14511 14514 28
11612 14511 14515 28
11613 14516 14517 28
11614 14516 14518 28
11615 14516 14519 28
11616 14516 14520 28
11617 14521 14522 28
11618 14521 14523 28
11619 14521 14524 28
11620 14521 14525 28
11621 14526 14527 28
11622 14526 14528 28
11623 14526 14529 28
11624 14526 14530 28
11625 14531 14532 28
11626 14531 14533 28
11627 14531 14534 28
11628 14531 14535 28
11629 14536 14537 28
11630 14536 14538 28
11631 14536 14539 28
11632 14536 14540 28
11633 14541 14542 28
11634 14541 14543 28
11635 14541 14544 28
11636 14541 14545 28
11637 14546 14547 28
11638 14546 14548 28
11639 14546 14549 28
11640 14546 14550 28
11641 14551 14552 28
11642 14551 14553 28
11643 14551 14554 28
11644 14551 14555 28
11645 14556 14557 28
11646 14556 14558 28
11647 14556 14559 28
11648 14556 14560 28
11649 14561 14562 28
11650 14561 14563 28
11651 14561 14564 28
11652 14561 14565 28
11653 14566 14567 28
11654 14566 14568 28
11655 14566 14569 28
11656 14566 14570 28
11657 14571 14572 28
11658 14571 14573 28
11659 14571 14574 28
11660 14571 14575 28
11661 14576 14577 28
11662 14576 14578 28
11663 14576 14579 28
11664 14576 14580 28
11665 14581 14582 28
11666 14581 14583 28
11667 14581 14584 28
11668 14581 14585 28
11669 14586 14587 28
11670 14586 14588 28
11671 14586 14589 28
11672 14586 14590 28
11673 14591 14592 28
11674 14591 14593 28
11675 14591 14594 28
11676 14591 14595 28
11677 14596 14597 28
11678 14596 14598 28
11679 14596 14599 28
11680 14596 14600 28
11681 14601 14602 28
11682 14601 14603 28
11683 14601 14604 28
11684 14601 14605 28
11685 14606 14607 28
11686 14606 14608 28
11687 14606 14609 28
11688 14606 14610 28
11689 14611 14612 28
11690 14611 14613 28
11691 14611 14614 28
11692 14611 14615 28
11693 14616 14617 28
11694 14616 14618 28
11695 14616 14619 28
11696 14616 14620 28
11697 14621 14622 28
11698 14621 14623 28
11699 14621 14624 28
11700 14621 14625 28
11701 14626 14627 28
11702 14626 14628 28
11703 14626 14629 28
11704 14626 14630 28
11705 14631 14632 28
11706 14631 14633 28
11707 14631 14634 28
11708 14631 14635 28
11709 14636 14637 28
11710 14636 14638 28
11711 14636 14639 28
11712 14636 14640 28
11713 14641 14642 28
11714 14641 14643 28
11715 14641 14644 28
11716 14641 14645 28
11717 14646 14647 28
11718 14646 14648 28
11719 14646 14649 28
11720 14646 14650 28
11721 14651 14652 28
11722 14651 14653 28
11723 14651 14654 28
11724 14651 14655 28
11725 14656 14657 28
11726 14656 14658 28
11727 14656 14659 28
11728 14656 14660 28
11729 14661 14662 28
11730 14661 14663 28
11731 14661 14664 28
11732 14661 14665 28
11733 14666 14667 28
11734 14666 14668 28
11735 14666 14669 28
11736 14666 14670 28
11737 14671 14672 28
11738 14671 14673 28
11739 14671 14674 28
11740 14671 14675 28
11741 14676 14677 28
11742 14676 14678 28
11743 14676 14679 28
11744 14676 14680 28
11745 14681 14682 28
11746 14681 14683 28
11747 14681 14684 28
11748 14681 14685 28
11749 14686 14687 28
11750 14686 14688 28
11751 14686 14689 28
11752 14686 14690 28
11753 14691 14692 28
11754 14691 14693 28
11755 14691 14694 28
11756 14691 14695 28
11757 14696 14697 28
11758 14696 14698 28
11759 14696 14699 28
11760 14696 14700 28
11761 14701 14702 28
11762 14701 14703 28
11763 14701 14704 28
11764 14701 14705 28
11765 14706 14707 28
11766 14706 14708 28
11767 14706 14709 28
11768 14706 14710 28
11769 14711 14712 28
11770 14711 14713 28
11771 14711 14714 28
11772 14711 14715 28
11773 14716 14717 28
11774 14716 14718 28
11775 14716 14719 28
11776 14716 14720 28
11777 14721 14722 28
11778 14721 14723 28
11779 14721 14724 28
11780 14721 14725 28
11781 14726 14727 28
11782 14726 14728 28
11783 14726 14729 28
11784 14726 14730 28
11785 14731 14732 28
11786 14731 14733 28
11787 14731 14734 28
11788 14731 14735 28
11789 14736 14737 28
11790 14736 14738 28
11791 14736 14739 28
11792 14736 14740 28
11793 14741 14742 28
11794 14741 14743 28
11795 14741 14744 28
11796 14741 14745 28
11797 14746 14747 28
11798 14746 14748 28
11799 14746 14749 28
11800 14746 14750 28
11801 14751 14752 28
11802 14751 14753 28
11803 14751 14754 28
11804 14751 14755 28
11805 14756 14757 28
11806 14756 14758 28
11807 14756 14759 28
11808 14756 14760 28
11809 14761 14762 28
11810 14761 14763 28
11811 14761 14764 28
11812 14761 14765 28
11813 14766 14767 28
11814 14766 14768 28
11815 14766 14769 28
11816 14766 14770 28
11817 14771 14772 28
11818 14771 14773 28
11819 14771 14774 28
11820 14771 14775 28
11821 14776 14777 28
11822 14776 14778 28
11823 14776 14779 28
11824 14776 14780 28
11825 14781 14782 28
11826 14781 14783 28
11827 14781 14784 28
11828 14781 14785 28
11829 14786 14787 28
11830 14786 14788 28
11831 14786 14789 28
11832 14786 14790 28
11833 14791 14792 28
11834 14791 14793 28
11835 14791 14794 28
11836 14791 14795 28
11837 14796 14797 28
11838 14796 14798 28
11839 14796 14799 28
11840 14796 14800 28
11841 14801 14802 28
11842 14801 14803 28
11843 14801 14804 28
11844 14801 14805 28
11845 14806 14807 28
11846 14806 14808 28
11847 14806 14809 28
11848 14806 14810 28
11849 14811 14812 28
11850 14811 14813 28
11851 14811 14814 28
11852 14811 14815 28
11853 14816 14817 28
11854 14816 14818 28
11855 14816 14819 28
11856 14816 14820 28
11857 14821 14822 28
11858 14821 14823 28
11859 14821 14824 28
11860 14821 14825 28
11861 14826 14827 28
11862 14826 14828 28
11863 14826 14829 28
11864 14826 14830 28
11865 14831 14832 28
11866 14831 14833 28
11867 14831 14834 28
11868 14831 14835 28
11869 14836 14837 28
11870 14836 14838 28
11871 14836 14839 28
11872 14836 14840 28
11873 14841 14842 28
11874 14841 14843 28
11875 14841 14844 28
11876 14841 14845 28
11877 14846 14847 28
11878 14846 14848 28
11879 14846 14849 28
11880 14846 14850 28
11881 14851 14852 28
11882 14851 14853 28
11883 14851 14854 28
11884 14851 14855 28
11885 14856 14857 28
11886 14856 14858 28
11887 14856 14859 28
11888 14856 14860 28
11889 14861 14862 28
11890 14861 14863 28
11891 14861 14864 28
11892 14861 14865 28
11893 14866 14867 28
11894 14866 14868 28
11895 14866 14869 28
11896 14866 14870 28
11897 14871 14872 28
11898 14871 14873 28
11899 14871 14874 28
11900 14871 14875 28
11901 14876 14877 28
11902 14876 14878 28
11903 14876 14879 28
11904 14876 14880 28
11905 14881 14882 28
11906 14881 14883 28
11907 14881 14884 28
11908 14881 14885 28
11909 14886 14887 28
11910 14886 14888 28
11911 14886 14889 28
11912 14886 14890 28
11913 14891 14892 28
11914 14891 14893 28
11915 14891 14894 28
11916 14891 14895 28
11917 14896 14897 28
11918 14896 14898 28
11919 14896 14899 28
11920 14896 14900 28
11921 14901 14902 28
11922 14901 14903 28
11923 14901 14904 28
11924 14901 14905 28
11925 14906 14907 28
11926 14906 14908 28
11927 14906 14909 28
11928 14906 14910 28
11929 14911 14912 28
11930 14911 14913 28
11931 14911 14914 28
11932 14911 14915 28
11933 14916 14917 28
11934 14916 14918 28
11935 14916 14919 28
11936 14916 14920 28
11937 14921 14922 28
11938 14921 14923 28
11939 14921 14924 28
11940 14921 14925 28
11941 14926 14927 28
11942 14926 14928 28
11943 14926 14929 28
11944 14926 14930 28
11945 14931 14932 28
11946 14931 14933 28
11947 14931 14934 28
11948 14931 14935 28
11949 14936 14937 28
11950 14936 14938 28
11951 14936 14939 28
11952 14936 14940 28
11953 14941 14942 28
11954 14941 14943 28
11955 14941 14944 28
11956 14941 14945 28
11957 14946 14947 28
11958 14946 14948 28
11959 14946 14949 28
11960 14946 14950 28
11961 14951 14952 28
11962 14951 14953 28
11963 14951 14954 28
11964 14951 14955 28
11965 14956 14957 28
11966 14956 14958 28
11967 14956 14959 28
11968 14956 14960 28
11969 14961 14962 28
11970 14961 14963 28
11971 14961 14964 28
11972 14961 14965 28
11973 14966 14967 28
11974 14966 14968 28
11975 14966 14969 28
11976 14966 14970 28
11977 14971 14972 28
11978 14971 14973 28
11979 14971 14974 28
11980 14971 14975 28
11981 14976 14977 28
11982 14976 14978 28
11983 14976 14979 28
11984 14976 14980 28
11985 14981 14982 28
11986 14981 14983 28
11987 14981 14984 28
11988 14981 14985 28
11989 14986 14987 28
11990 14986 14988 28
11991 14986 14989 28
11992 14986 14990 28
11993 14991 14992 28
11994 14991 14993 28
11995 14991 14994 28
11996 14991 14995 28
11997 14996 14997 28
11998 14996 14998 28
11999 14996 14999 28
12000 14996 15000 28
12001 15001 15002 28
12002 15001 15003 28
12003 15001 15004 28
12004 15001 15005 28
12005 15006 15007 28
12006 15006 15008 28
12007 15006 15009 28
12008 15006 15010 28
12009 15011 15012 28
12010 15011 15013 28
12011 15011 15014 28
12012 15011 15015 28
12013 15016 15017 28
12014 15016 15018 28
12015 15016 15019 28
12016 15016 15020 28
12017 15021 15022 28
12018 15021 15023 28
12019 15021 15024 28
12020 15021 15025 28
12021 15026 15027 28
12022 15026 15028 28
12023 15026 15029 28
12024 15026 15030 28
12025 15031 15032 28
12026 15031 15033 28
12027 15031 15034 28
12028 15031 15035 28
12029 15036 15037 28
12030 15036 15038 28
12031 15036 15039 28
12032 15036 15040 28
12033 15041 15042 28
12034 15041 15043 28
12035 15041 15044 28
12036 15041 15045 28
12037 15046 15047 28
12038 15046 15048 28
12039 15046 15049 28
12040 15046 15050 28
12041 15051 15052 28
12042 15051 15053 28
12043 15051 15054 28
12044 15051 15055 28
12045 15056 15057 28
12046 15056 15058 28
12047 15056 15059 28
12048 15056 15060 28
12049 15061 15062 28
12050 15061 15063 28
12051 15061 15064 28
12052 15061 15065 28
12053 15066 15067 28
12054 15066 15068 28
12055 15066 15069 28
12056 15066 15070 28
12057 15071 15072 28
12058 15071 15073 28
12059 15071 15074 28
12060 15071 15075 28
12061 15076 15077 28
12062 15076 15078 28
12063 15076 15079 28
12064 15076 15080 28
12065 15081 15082 28
12066 15081 15083 28
12067 15081 15084 28
12068 15081 15085 28
12069 15086 15087 28
12070 15086 15088 28
12071 15086 15089 28
12072 15086 15090 28
12073 15091 15092 28
12074 15091 15093 28
12075 15091 15094 28
12076 15091 15095 28
12077 15096 15097 28
12078 15096 15098 28
12079 15096 15099 28
12080 15096 15100 28
12081 15101 15102 28
12082 15101 15103 28
12083 15101 15104 28
12084 15101 15105 28
12085 15106 15107 28
12086 15106 15108 28
12087 15106 15109 28
12088 15106 15110 28
12089 15111 15112 28
12090 15111 15113 28
12091 15111 15114 28
12092 15111 15115 28
12093 15116 15117 28
12094 15116 15118 28
12095 15116 15119 28
12096 15116 15120 28
12097 15121 15122 28
12098 15121 15123 28
12099 15121 15124 28
12100 15121 15125 28
12101 15126 15127 28
12102 15126 15128 28
12103 15126 15129 28
12104 15126 15130 28
12105 15131 15132 28
12106 15131 15133 28
12107 15131 15134 28
12108 15131 15135 28
12109 15136 15137 28
12110 15136 15138 28
12111 15136 15139 28
12112 15136 15140 28
12113 15141 15142 28
12114 15141 15143 28
12115 15141 15144 28
12116 15141 15145 28
12117 15146 15147 28
12118 15146 15148 28
12119 15146 15149 28
12120 15146 15150 28
12121 15151 15152 28
12122 15151 15153 28
12123 15151 15154 28
12124 15151 15155 28
12125 15156 15157 28
12126 15156 15158 28
12127 15156 15159 28
12128 15156 15160 28
12129 15161 15162 28
12130 15161 15163 28
12131 15161 15164 28
12132 15161 15165 28
12133 15166 15167 28
12134 15166 15168 28
12135 15166 15169 28
12136 15166 15170 28
12137 15171 15172 28
12138 15171 15173 28
12139 15171 15174 28
12140 15171 15175 28
12141 15176 15177 28
12142 15176 15178 28
12143 15176 15179 28
12144 15176 15180 28
12145 15181 15182 28
12146 15181 15183 28
12147 15181 15184 28
12148 15181 15185 28
12149 15186 15187 28
12150 15186 15188 28
12151 15186 15189 28
12152 15186 15190 28
12153 15191 15192 28
12154 15191 15193 28
12155 15191 15194 28
12156 15191 15195 28
12157 15196 15197 28
12158 15196 15198 28
12159 15196 15199 28
12160 15196 15200 28
12161 15201 15202 28
12162 15201 15203 28
12163 15201 15204 28
12164 15201 15205 28
12165 15206 15207 28
12166 15206 15208 28
12167 15206 15209 28
12168 15206 15210 28
12169 15211 15212 28
12170 15211 15213 28
12171 15211 15214 28
12172 15211 15215 28
12173 15216 15217 28
12174 15216 15218 28
12175 15216 15219 28
12176 15216 15220 28
12177 15221 15222 28
12178 15221 15223 28
12179 15221 15224 28
12180 15221 15225 28
12181 15226 15227 28
12182 15226 15228 28
12183 15226 15229 28
12184 15226 15230 28
12185 15231 15232 28
12186 15231 15233 28
12187 15231 15234 28
12188 15231 15235 28
12189 15236 15237 28
12190 15236 15238 28
12191 15236 15239 28
12192 15236 15240 28
12193 15241 15242 28
12194 15241 15243 28
12195 15241 15244 28
12196 15241 15245 28
12197 15246 15247 28
12198 15246 15248 28
12199 15246 15249 28
12200 15246 15250 28
12201 15251 15252 28
12202 15251 15253 28
12203 15251 15254 28
12204 15251 15255 28
12205 15256 15257 28
12206 15256 15258 28
12207 15256 15259 28
12208 15256 15260 28
12209 15261 15262 28
12210 15261 15263 28
12211 15261 15264 28
12212 15261 15265 28
12213 15266 15267 28
12214 15266 15268 28
12215 15266 15269 28
12216 15266 15270 28
12217 15271 15272 28
12218 15271 15273 28
12219 15271 15274 28
12220 15271 15275 28
12221 15276 15277 28
12222 15276 15278 28
12223 15276 15279 28
12224 15276 15280 28
12225 15281 15282 28
12226 15281 15283 28
12227 15281 15284 28
12228 15281 15285 28
12229 15286 15287 28
12230 15286 15288 28
12231 15286 15289 28
12232 15286 15290 28
12233 15291 15292 28
12234 15291 15293 28
12235 15291 15294 28
12236 15291 15295 28
12237 15296 15297 28
12238 15296 15298 28
12239 15296 15299 28
12240 15296 15300 28
12241 15301 15302 28
12242 15301 15303 28
12243 15301 15304 28
12244 15301 15305 28
12245 15306 15307 28
12246 15306 15308 28
12247 15306 15309 28
12248 15306 15310 28
12249 15311 15312 28
12250 15311 15313 28
12251 15311 15314 28
12252 15311 15315 28
12253 15316 15317 28
12254 15316 15318 28
12255 15316 15319 28
12256 15316 15320 28
12257 15321 15322 28
12258 15321 15323 28
12259 15321 15324 28
12260 15321 15325 28
12261 15326 15327 28
12262 15326 15328 28
12263 15326 15329 28
12264 15326 15330 28
12265 15331 15332 28
12266 15331 15333 28
12267 15331 15334 28
12268 15331 15335 28
12269 15336 15337 28
12270 15336 15338 28
12271 15336 15339 28
12272 15336 15340 28
12273 15341 15342 28
12274 15341 15343 28
12275 15341 15344 28
12276 15341 15345 28
12277 15346 15347 28
12278 15346 15348 28
12279 15346 15349 28
12280 15346 15350 28
12281 15351 15352 28
12282 15351 15353 28
12283 15351 15354 28
12284 15351 15355 28
12285 15356 15357 28
12286 15356 15358 28
12287 15356 15359 28
12288 15356 15360 28
12289 15361 15362 28
12290 15361 15363 28
12291 15361 15364 28
12292 15361 15365 28
12293 15366 15367 28
12294 15366 15368 28
12295 15366 15369 28
12296 15366 15370 28
12297 15371 15372 28
12298 15371 15373 28
12299 15371 15374 28
12300 15371 15375 28
12301 15376 15377 28
12302 15376 15378 28
12303 15376 15379 28
12304 15376 15380 28
12305 15381 15382 28
12306 15381 15383 28
12307 15381 15384 28
12308 15381 15385 28
12309 15386 15387 28
12310 15386 15388 28
12311 15386 15389 28
12312 15386 15390 28
12313 15391 15392 28
12314 15391 15393 28
12315 15391 15394 28
12316 15391 15395 28
12317 15396 15397 28
12318 15396 15398 28
12319 15396 15399 28
12320 15396 15400 28
12321 15401 15402 28
12322 15401 15403 28
12323 15401 15404 28
12324 15401 15405 28
12325 15406 15407 28
12326 15406 15408 28
12327 15406 15409 28
12328 15406 15410 28
12329 15411 15412 28
12330 15411 15413 28
12331 15411 15414 28
12332 15411 15415 28
12333 15416 15417 28
12334 15416 15418 28
12335 15416 15419 28
12336 15416 15420 28
12337 15421 15422 28
12338 15421 15423 28
12339 15421 15424 28
12340 15421 15425 28
12341 15426 15427 28
12342 15426 15428 28
12343 15426 15429 28
12344 15426 15430 28
12345 15431 15432 28
12346 15431 15433 28
12347 15431 15434 28
12348 15431 15435 28
12349 15436 15437 28
12350 15436 15438 28
12351 15436 15439 28
12352 15436 15440 28
12353 15441 15442 28
12354 15441 15443 28
12355 15441 15444 28
12356 15441 15445 28
12357 15446 15447 28
12358 15446 15448 28
12359 15446 15449 28
12360 15446 15450 28
12361 15451 15452 28
12362 15451 15453 28
12363 15451 15454 28
12364 15451 15455 28
12365 15456 15457 28
12366 15456 15458 28
12367 15456 15459 28
12368 15456 15460 28
12369 15461 15462 28
12370 15461 15463 28
12371 15461 15464 28
12372 15461 15465 28
12373 15466 15467 28
12374 15466 15468 28
12375 15466 15469 28
12376 15466 15470 28
12377 15471 15472 28
12378 15471 15473 28
12379 15471 15474 28
12380 15471 15475 28
12381 15476 15477 28
12382 15476 15478 28
12383 15476 15479 28
12384 15476 15480 28
12385 15481 15482 28
12386 15481 15483 28
12387 15481 15484 28
12388 15481 15485 28
12389 15486 15487 28
12390 15486 15488 28
12391 15486 15489 28
12392 15486 15490 28
12393 15491 15492 28
12394 15491 15493 28
12395 15491 15494 28
12396 15491 15495 28
12397 15496 15497 28
12398 15496 15498 28
12399 15496 15499 28
12400 15496 15500 28
12401 15501 15502 28
12402 15501 15503 28
12403 15501 15504 28
12404 15501 15505 28
12405 15506 15507 28
12406 15506 15508 28
12407 15506 15509 28
12408 15506 15510 28
12409 15511 15512 28
12410 15511 15513 28
12411 15511 15514 28
12412 15511 15515 28
12413 15516 15517 28
12414 15516 15518 28
12415 15516 15519 28
12416 15516 15520 28
12417 15521 15522 28
12418 15521 15523 28
12419 15521 15524 28
12420 15521 15525 28
12421 15526 15527 28
12422 15526 15528 28
12423 15526 15529 28
12424 15526 15530 28
12425 15531 15532 28
12426 15531 15533 28
12427 15531 15534 28
12428 15531 15535 28
12429 15536 15537 28
12430 15536 15538 28
12431 15536 15539 28
12432 15536 15540 28
12433 15541 15542 28
12434 15541 15543 28
12435 15541 15544 28
12436 15541 15545 28
12437 15546 15547 28
12438 15546 15548 28
12439 15546 15549 28
12440 15546 15550 28
12441 15551 15552 28
12442 15551 15553 28
12443 15551 15554 28
12444 15551 15555 28
12445 15556 15557 28
12446 15556 15558 28
12447 15556 15559 28
12448 15556 15560 28
12449 15561 15562 28
12450 15561 15563 28
12451 15561 15564 28
12452 15561 15565 28
12453 15566 15567 28
12454 15566 15568 28
12455 15566 15569 28
12456 15566 15570 28
12457 15571 15572 28
12458 15571 15573 28
12459 15571 15574 28
12460 15571 15575 28
12461 15576 15577 28
12462 15576 15578 28
12463 15576 15579 28
12464 15576 15580 28
12465 15581 15582 28
12466 15581 15583 28
12467 15581 15584 28
12468 15581 15585 28
12469 15586 15587 28
12470 15586 15588 28
12471 15586 15589 28
12472 15586 15590 28
12473 15591 15592 28
12474 15591 15593 28
12475 15591 15594 28
12476 15591 15595 28
12477 15596 15597 28
12478 15596 15598 28
12479 15596 15599 28
12480 15596 15600 28
12481 15601 15602 28
12482 15601 15603 28
12483 15601 15604 28
12484 15601 15605 28
12485 15606 15607 28
12486 15606 15608 28
12487 15606 15609 28
12488 15606 15610 28
12489 15611 15612 28
12490 15611 15613 28
12491 15611 15614 28
12492 15611 15615 28
12493 15616 15617 28
12494 15616 15618 28
12495 15616 15619 28
12496 15616 15620 28
12497 15621 15622 28
12498 15621 15623 28
12499 15621 15624 28
12500 15621 15625 28
12501 15626 15627 28
12502 15626 15628 28
12503 15626 15629 28
12504 15626 15630 28
12505 15631 15632 28
12506 15631 15633 28
12507 15631 15634 28
12508 15631 15635 28
12509 15636 15637 28
12510 15636 15638 28
12511 15636 15639 28
12512 15636 15640 28
12513 15641 15642 28
12514 15641 15643 28
12515 15641 15644 28
12516 15641 15645 28
12517 15646 15647 28
12518 15646 15648 28
12519 15646 15649 28
12520 15646 15650 28
12521 15651 15652 28
12522 15651 15653 28
12523 15651 15654 28
12524 15651 15655 28
12525 15656 15657 28
12526 15656 15658 28
12527 15656 15659 28
12528 15656 15660 28
12529 15661 15662 28
12530 15661 15663 28
12531 15661 15664 28
12532 15661 15665 28
12533 15666 15667 28
12534 15666 15668 28
12535 15666 15669 28
12536 15666 15670 28
12537 15671 15672 28
12538 15671 15673 28
12539 15671 15674 28
12540 15671 15675 28
12541 15676 15677 28
12542 15676 15678 28
12543 15676 15679 28
12544 15676 15680 28
12545 15681 15682 28
12546 15681 15683 28
12547 15681 15684 28
12548 15681 15685 28
12549 15686 15687 28
12550 15686 15688 28
12551 15686 15689 28
12552 15686 15690 28
12553 15691 15692 28
12554 15691 15693 28
12555 15691 15694 28
12556 15691 15695 28
12557 15696 15697 28
12558 15696 15698 28
12559 15696 15699 28
12560 15696 15700 28
12561 15701 15702 28
12562 15701 15703 28
12563 15701 15704 28
12564 15701 15705 28
12565 15706 15707 28
12566 15706 15708 28
12567 15706 15709 28
12568 15706 15710 28
12569 15711 15712 28
12570 15711 15713 28
12571 15711 15714 28
12572 15711 15715 28
12573 15716 15717 28
12574 15716 15718 28
12575 15716 15719 28
12576 15716 15720 28
12577 15721 15722 28
12578 15721 15723 28
12579 15721 15724 28
12580 15721 15725 28
12581 15726 15727 28
12582 15726 15728 28
12583 15726 15729 28
12584 15726 15730 28
12585 15731 15732 28
12586 15731 15733 28
12587 15731 15734 28
12588 15731 15735 28
12589 15736 15737 28
12590 15736 15738 28
12591 15736 15739 28
12592 15736 15740 28
12593 15741 15742 28
12594 15741 15743 28
12595 15741 15744 28
12596 15741 15745 28
12597 15746 15747 28
12598 15746 15748 28
12599 15746 15749 28
12600 15746 15750 28
12601 15751 15752 28
12602 15751 15753 28
12603 15751 15754 28
12604 15751 15755 28
12605 15756 15757 28
12606 15756 15758 28
12607 15756 15759 28
12608 15756 15760 28
12609 15761 15762 28
12610 15761 15763 28
12611 15761 15764 28
12612 15761 15765 28
12613 15766 15767 28
12614 15766 15768 28
12615 15766 15769 28
12616 15766 15770 28
12617 15771 15772 28
12618 15771 15773 28
12619 15771 15774 28
12620 15771 15775 28
12621 15776 15777 28
12622 15776 15778 28
12623 15776 15779 28
12624 15776 15780 28
12625 15781 15782 28
12626 15781 15783 28
12627 15781 15784 28
12628 15781 15785 28
12629 15786 15787 28
12630 15786 15788 28
12631 15786 15789 28
12632 15786 15790 28
12633 15791 15792 28
12634 15791 15793 28
12635 15791 15794 28
12636 15791 15795 28
12637 15796 15797 28
12638 15796 15798 28
12639 15796 15799 28
12640 15796 15800 28
12641 15801 15802 28
12642 15801 15803 28
12643 15801 15804 28
12644 15801 15805 28
12645 15806 15807 28
12646 15806 15808 28
12647 15806 15809 28
12648 15806 15810 28
12649 15811 15812 28
12650 15811 15813 28
12651 15811 15814 28
12652 15811 15815 28
12653 15816 15817 28
12654 15816 15818 28
12655 15816 15819 28
12656 15816 15820 28
12657 15821 15822 28
12658 15821 15823 28
12659 15821 15824 28
12660 15821 15825 28
12661 15826 15827 28
12662 15826 15828 28
12663 15826 15829 28
12664 15826 15830 28
12665 15831 15832 28
12666 15831 15833 28
12667 15831 15834 28
12668 15831 15835 28
12669 15836 15837 28
12670 15836 15838 28
12671 15836 15839 28
12672 15836 15840 28
12673 15841 15842 28
12674 15841 15843 28
12675 15841 15844 28
12676 15841 15845 28
12677 15846 15847 28
12678 15846 15848 28
12679 15846 15849 28
12680 15846 15850 28
12681 15851 15852 28
12682 15851 15853 28
12683 15851 15854 28
12684 15851 15855 28
12685 15856 15857 28
12686 15856 15858 28
12687 15856 15859 28
12688 15856 15860 28
12689 15861 15862 28
12690 15861 15863 28
12691 15861 15864 28
12692 15861 15865 28
12693 15866 15867 28
12694 15866 15868 28
12695 15866 15869 28
12696 15866 15870 28
12697 15871 15872 28
12698 15871 15873 28
12699 15871 15874 28
12700 15871 15875 28
12701 15876 15877 28
12702 15876 15878 28
12703 15876 15879 28
12704 15876 15880 28
12705 15881 15882 28
12706 15881 15883 28
12707 15881 15884 28
12708 15881 15885 28
12709 15886 15887 28
12710 15886 15888 28
12711 15886 15889 28
12712 15886 15890 28
12713 15891 15892 28
12714 15891 15893 28
12715 15891 15894 28
12716 15891 15895 28
12717 15896 15897 28
12718 15896 15898 28
12719 15896 15899 28
12720 15896 15900 28
12721 15901 15902 28
12722 15901 15903 28
12723 15901 15904 28
12724 15901 15905 28
12725 15906 15907 28
12726 15906 15908 28
12727 15906 15909 28
12728 15906 15910 28
12729 15911 15912 28
12730 15911 15913 28
12731 15911 15914 28
12732 15911 15915 28
12733 15916 15917 28
12734 15916 15918 28
12735 15916 15919 28
12736 15916 15920 28
12737 15921 15922 28
12738 15921 15923 28
12739 15921 15924 28
12740 15921 15925 28
12741 15926 15927 28
12742 15926 15928 28
12743 15926 15929 28
12744 15926 15930 28
12745 15931 15932 28
12746 15931 15933 28
12747 15931 15934 28
12748 15931 15935 28
12749 15936 15937 28
12750 15936 15938 28
12751 15936 15939 28
12752 15936 15940 28
12753 15941 15942 28
12754 15941 15943 28
12755 15941 15944 28
12756 15941 15945 28
12757 15946 15947 28
12758 15946 15948 28
12759 15946 15949 28
12760 15946 15950 28
12761 15951 15952 28
12762 15951 15953 28
12763 15951 15954 28
12764 15951 15955 28
12765 15956 15957 28
12766 15956 15958 28
12767 15956 15959 28
12768 15956 15960 28
12769 15961 15962 28
12770 15961 15963 28
12771 15961 15964 28
12772 15961 15965 28
12773 15966 15967 28
12774 15966 15968 28
12775 15966 15969 28
12776 15966 15970 28
12777 15971 15972 28
12778 15971 15973 28
12779 15971 15974 28
12780 15971 15975 28
12781 15976 15977 28
12782 15976 15978 28
12783 15976 15979 28
12784 15976 15980 28
12785 15981 15982 28
12786 15981 15983 28
12787 15981 15984 28
12788 15981 15985 28
12789 15986 15987 28
12790 15986 15988 28
12791 15986 15989 28
12792 15986 15990 28
12793 15991 15992 28
12794 15991 15993 28
12795 15991 15994 28
12796 15991 15995 28
12797 15996 15997 28
12798 15996 15998 28
12799 15996 15999 28
12800 15996 16000 28
12801 16001 16002 28
12802 16001 16003 28
12803 16001 16004 28
12804 16001 16005 28
12805 16006 16007 28
12806 16006 16008 28
12807 16006 16009 28
12808 16006 16010 28
12809 16011 16012 28
12810 16011 16013 28
12811 16011 16014 28
12812 16011 16015 28
12813 16016 16017 28
12814 16016 16018 28
12815 16016 16019 28
12816 16016 16020 28
12817 16021 16022 28
12818 16021 16023 28
12819 16021 16024 28
12820 16021 16025 28
12821 16026 16027 28
12822 16026 16028 28
12823 16026 16029 28
12824 16026 16030 28
12825 16031 16032 28
12826 16031 16033 28
12827 16031 16034 28
12828 16031 16035 28
12829 16036 16037 28
12830 16036 16038 28
12831 16036 16039 28
12832 16036 16040 28
12833 16041 16042 28
12834 16041 16043 28
12835 16041 16044 28
12836 16041 16045 28
12837 16046 16047 28
12838 16046 16048 28
12839 16046 16049 28
12840 16046 16050 28
12841 16051 16052 28
12842 16051 16053 28
12843 16051 16054 28
12844 16051 16055 28
12845 16056 16057 28
12846 16056 16058 28
12847 16056 16059 28
12848 16056 16060 28
12849 16061 16062 28
12850 16061 16063 28
12851 16061 16064 28
12852 16061 16065 28
12853 16066 16067 28
12854 16066 16068 28
12855 16066 16069 28
12856 16066 16070 28
12857 16071 16072 28
12858 16071 16073 28
12859 16071 16074 28
12860 16071 16075 28
12861 16076 16077 28
12862 16076 16078 28
12863 16076 16079 28
12864 16076 16080 28
12865 16081 16082 28
12866 16081 16083 28
12867 16081 16084 28
12868 16081 16085 28
12869 16086 16087 28
12870 16086 16088 28
12871 16086 16089 28
12872 16086 16090 28
12873 16091 16092 28
12874 16091 16093 28
12875 16091 16094 28
12876 16091 16095 28
12877 16096 16097 28
12878 16096 16098 28
12879 16096 16099 28
12880 16096 16100 28
12881 16101 16102 28
12882 16101 16103 28
12883 16101 16104 28
12884 16101 16105 28
12885 16106 16107 28
12886 16106 16108 28
12887 16106 16109 28
12888 16106 16110 28
12889 16111 16112 28
12890 16111 16113 28
12891 16111 16114 28
12892 16111 16115 28
12893 16116 16117 28
12894 16116 16118 28
12895 16116 16119 28
12896 16116 16120 28
12897 16121 16122 28
12898 16121 16123 28
12899 16121 16124 28
12900 16121 16125 28
12901 16126 16127 28
12902 16126 16128 28
12903 16126 16129 28
12904 16126 16130 28
12905 16131 16132 28
12906 16131 16133 28
12907 16131 16134 28
12908 16131 16135 28
12909 16136 16137 28
12910 16136 16138 28
12911 16136 16139 28
12912 16136 16140 28
12913 16141 16142 28
12914 16141 16143 28
12915 16141 16144 28
12916 16141 16145 28
12917 16146 16147 28
12918 16146 16148 28
12919 16146 16149 28
12920 16146 16150 28
12921 16151 16152 28
12922 16151 16153 28
12923 16151 16154 28
12924 16151 16155 28
12925 16156 16157 28
12926 16156 16158 28
12927 16156 16159 28
12928 16156 16160 28
12929 16161 16162 28
12930 16161 16163 28
12931 16161 16164 28
12932 16161 16165 28
12933 16166 16167 28
12934 16166 16168 28
12935 16166 16169 28
12936 16166 16170 28
12937 16171 16172 28
12938 16171 16173 28
12939 16171 16174 28
12940 16171 16175 28
12941 16176 16177 28
12942 16176 16178 28
12943 16176 16179 28
12944 16176 16180 28
12945 16181 16182 28
12946 16181 16183 28
12947 16181 16184 28
12948 16181 16185 28
12949 16186 16187 28
12950 16186 16188 28
12951 16186 16189 28
12952 16186 16190 28
12953 16191 16192 28
12954 16191 16193 28
12955 16191 16194 28
12956 16191 16195 28
12957 16196 16197 28
12958 16196 16198 28
12959 16196 16199 28
12960 16196 16200 28
12961 16201 16202 28
12962 16201 16203 28
12963 16201 16204 28
12964 16201 16205 28
12965 16206 16207 28
12966 16206 16208 28
12967 16206 16209 28
12968 16206 16210 28
12969 16211 16212 28
12970 16211 16213 28
12971 16211 16214 28
12972 16211 16215 28
12973 16216 16217 28
12974 16216 16218 28
12975 16216 16219 28
12976 16216 16220 28
12977 16221 16222 28
12978 16221 16223 28
12979 16221 16224 28
12980 16221 16225 28
12981 16226 16227 28
12982 16226 16228 28
12983 16226 16229 28
12984 16226 16230 28
12985 16231 16232 28
12986 16231 16233 28
12987 16231 16234 28
12988 16231 16235 28
12989 16236 16237 28
12990 16236 16238 28
12991 16236 16239 28
12992 16236 16240 28
12993 16241 16242 28
12994 16241 16243 28
12995 16241 16244 28
12996 16241 16245 28
12997 16246 16247 28
12998 16246 16248 28
12999 16246 16249 28
13000 16246 16250 28
13001 16251 16252 28
13002 16251 16253 28
13003 16251 16254 28
13004 16251 16255 28
13005 16256 16257 28
13006 16256 16258 28
13007 16256 16259 28
13008 16256 16260 28
13009 16261 16262 28
13010 16261 16263 28
13011 16261 16264 28
13012 16261 16265 28
13013 16266 16267 28
13014 16266 16268 28
13015 16266 16269 28
13016 16266 16270 28
13017 16271 16272 28
13018 16271 16273 28
13019 16271 16274 28
13020 16271 16275 28
13021 16276 16277 28
13022 16276 16278 28
13023 16276 16279 28
13024 16276 16280 28
13025 16281 16282 28
13026 16281 16283 28
13027 16281 16284 28
13028 16281 16285 28
13029 16286 16287 28
13030 16286 16288 28
13031 16286 16289 28
13032 16286 16290 28
13033 16291 16292 28
13034 16291 16293 28
13035 16291 16294 28
13036 16291 16295 28
13037 16296 16297 28
13038 16296 16298 28
13039 16296 16299 28
13040 16296 16300 28
13041 16301 16302 28
13042 16301 16303 28
13043 16301 16304 28
13044 16301 16305 28
13045 16306 16307 28
13046 16306 16308 28
13047 16306 16309 28
13048 16306 16310 28
13049 16311 16312 28
13050 16311 16313 28
13051 16311 16314 28
13052 16311 16315 28
13053 16316 16317 28
13054 16316 16318 28
13055 16316 16319 28
13056 16316 16320 28
13057 16321 16322 28
13058 16321 16323 28
13059 16321 16324 28
13060 16321 16325 28
13061 16326 16327 28
13062 16326 16328 28
13063 16326 16329 28
13064 16326 16330 28
13065 16331 16332 28
13066 16331 16333 28
13067 16331 16334 28
13068 16331 16335 28
13069 16336 16337 28
13070 16336 16338 28
13071 16336 16339 28
13072 16336 16340 28
13073 16341 16342 28
13074 16341 16343 28
13075 16341 16344 28
13076 16341 16345 28
13077 16346 16347 28
13078 16346 16348 28
13079 16346 16349 28
13080 16346 16350 28
13081 16351 16352 28
13082 16351 16353 28
13083 16351 16354 28
13084 16351 16355 28
13085 16356 16357 28
13086 16356 16358 28
13087 16356 16359 28
13088 16356 16360 28
13089 16361 16362 28
13090 16361 16363 28
13091 16361 16364 28
13092 16361 16365 28
13093 16366 16367 28
13094 16366 16368 28
13095 16366 16369 28
13096 16366 16370 28
13097 16371 16372 28
13098 16371 16373 28
13099 16371 16374 28
13100 16371 16375 28
13101 16376 16377 28
13102 16376 16378 28
13103 16376 16379 28
13104 16376 16380 28
13105 16381 16382 28
13106 16381 16383 28
13107 16381 16384 28
13108 16381 16385 28
13109 16386 16387 28
13110 16386 16388 28
13111 16386 16389 28
13112 16386 16390 28
13113 16391 16392 28
13114 16391 16393 28
13115 16391 16394 28
13116 16391 16395 28
13117 16396 16397 28
13118 16396 16398 28
13119 16396 16399 28
13120 16396 16400 28
13121 16401 16402 28
13122 16401 16403 28
13123 16401 16404 28
13124 16401 16405 28
13125 16406 16407 28
13126 16406 16408 28
13127 16406 16409 28
13128 16406 16410 28
13129 16411 16412 28
13130 16411 16413 28
13131 16411 16414 28
13132 16411 16415 28
13133 16416 16417 28
13134 16416 16418 28
13135 16416 16419 28
13136 16416 16420 28
13137 16421 16422 28
13138 16421 16423 28
13139 16421 16424 28
13140 16421 16425 28
13141 16426 16427 28
13142 16426 16428 28
13143 16426 16429 28
13144 16426 16430 28
13145 16431 16432 28
13146 16431 16433 28
13147 16431 16434 28
13148 16431 16435 28
13149 16436 16437 28
13150 16436 16438 28
13151 16436 16439 28
13152 16436 16440 28
13153 16441 16442 28
13154 16441 16443 28
13155 16441 16444 28
13156 16441 16445 28
13157 16446 16447 28
13158 16446 16448 28
13159 16446 16449 28
13160 16446 16450 28
13161 16451 16452 28
13162 16451 16453 28
13163 16451 16454 28
13164 16451 16455 28
13165 16456 16457 28
13166 16456 16458 28
13167 16456 16459 28
13168 16456 16460 28
13169 16461 16462 28
13170 16461 16463 28
13171 16461 16464 28
13172 16461 16465 28
13173 16466 16467 28
13174 16466 16468 28
13175 16466 16469 28
13176 16466 16470 28
13177 16471 16472 28
13178 16471 16473 28
13179 16471 16474 28
13180 16471 16475 28
13181 16476 16477 28
13182 16476 16478 28
13183 16476 16479 28
13184 16476 16480 28
13185 16481 16482 28
13186 16481 16483 28
13187 16481 16484 28
13188 16481 16485 28
13189 16486 16487 28
13190 16486 16488 28
13191 16486 16489 28
13192 16486 16490 28
13193 16491 16492 28
13194 16491 16493 28
13195 16491 16494 28
13196 16491 16495 28
13197 16496 16497 28
13198 16496 16498 28
13199 16496 16499 28
13200 16496 16500 28
13201 16501 16502 28
13202 16501 16503 28
13203 16501 16504 28
13204 16501 16505 28
13205 16506 16507 28
13206 16506 16508 28
13207 16506 16509 28
13208 16506 16510 28
13209 16511 16512 28
13210 16511 16513 28
13211 16511 16514 28
13212 16511 16515 28
13213 16516 16517 28
13214 16516 16518 28
13215 16516 16519 28
13216 16516 16520 28
13217 16521 16522 28
13218 16521 16523 28
13219 16521 16524 28
13220 16521 16525 28
13221 16526 16527 28
13222 16526 16528 28
13223 16526 16529 28
13224 16526 16530 28
13225 16531 16532 28
13226 16531 16533 28
13227 16531 16534 28
13228 16531 16535 28
13229 16536 16537 28
13230 16536 16538 28
13231 16536 16539 28
13232 16536 16540 28
13233 16541 16542 28
13234 16541 16543 28
13235 16541 16544 28
13236 16541 16545 28
13237 16546 16547 28
13238 16546 16548 28
13239 16546 16549 28
13240 16546 16550 28
13241 16551 16552 28
13242 16551 16553 28
13243 16551 16554 28
13244 16551 16555 28
13245 16556 16557 28
13246 16556 16558 28
13247 16556 16559 28
13248 16556 16560 28
13249 16561 16562 28
13250 16561 16563 28
13251 16561 16564 28
13252 16561 16565 28
13253 16566 16567 28
13254 16566 16568 28
13255 16566 16569 28
13256 16566 16570 28
13257 16571 16572 28
13258 16571 16573 28
13259 16571 16574 28
13260 16571 16575 28
13261 16576 16577 28
13262 16576 16578 28
13263 16576 16579 28
13264 16576 16580 28
13265 16581 16582 28
13266 16581 16583 28
13267 16581 16584 28
13268 16581 16585 28
13269 16586 16587 28
13270 16586 16588 28
13271 16586 16589 28
13272 16586 16590 28
13273 16591 16592 28
13274 16591 16593 28
13275 16591 16594 28
13276 16591 16595 28
13277 16596 16597 28
13278 16596 16598 28
13279 16596 16599 28
13280 16596 16600 28
13281 16601 16602 28
13282 16601 16603 28
13283 16601 16604 28
13284 16601 16605 28
13285 16606 16607 28
13286 16606 16608 28
13287 16606 16609 28
13288 16606 16610 28
13289 16611 16612 28
13290 16611 16613 28
13291 16611 16614 28
13292 16611 16615 28
13293 16616 16617 28
13294 16616 16618 28
13295 16616 16619 28
13296 16616 16620 28
13297 16621 16622 28
13298 16621 16623 28
13299 16621 16624 28
13300 16621 16625 28
13301 16626 16627 28
13302 16626 16628 28
13303 16626 16629 28
13304 16626 16630 28
13305 16631 16632 28
13306 16631 16633 28
13307 16631 16634 28
13308 16631 16635 28
13309 16636 16637 28
13310 16636 16638 28
13311 16636 16639 28
13312 16636 16640 28
13313 16641 16642 28
13314 16641 16643 28
13315 16641 16644 28
13316 16641 16645 28
13317 16646 16647 28
13318 16646 16648 28
13319 16646 16649 28
13320 16646 16650 28
13321 16651 16652 28
13322 16651 16653 28
13323 16651 16654 28
13324 16651 16655 28
13325 16656 16657 28
13326 16656 16658 28
13327 16656 16659 28
13328 16656 16660 28
13329 16661 16662 28
13330 16661 16663 28
13331 16661 16664 28
13332 16661 16665 28
13333 16666 16667 28
13334 16666 16668 28
13335 16666 16669 28
13336 16666 16670 28
13337 16671 16672 28
13338 16671 16673 28
13339 16671 16674 28
13340 16671 16675 28
13341 16676 16677 28
13342 16676 16678 28
13343 16676 16679 28
13344 16676 16680 28
13345 16681 16682 28
13346 16681 16683 28
13347 16681 16684 28
13348 16681 16685 28
13349 16686 16687 28
13350 16686 16688 28
13351 16686 16689 28
13352 16686 16690 28
13353 16691 16692 28
13354 16691 16693 28
13355 16691 16694 28
13356 16691 16695 28
13357 16696 16697 28
13358 16696 16698 28
13359 16696 16699 28
13360 16696 16700 28
13361 16701 16702 28
13362 16701 16703 28
13363 16701 16704 28
13364 16701 16705 28
13365 16706 16707 28
13366 16706 16708 28
13367 16706 16709 28
13368 16706 16710 28
13369 16711 16712 28
13370 16711 16713 28
13371 16711 16714 28
13372 16711 16715 28
13373 16716 16717 28
13374 16716 16718 28
13375 16716 16719 28
13376 16716 16720 28
13377 16721 16722 28
13378 16721 16723 28
13379 16721 16724 28
13380 16721 16725 28
13381 16726 16727 28
13382 16726 16728 28
13383 16726 16729 28
13384 16726 16730 28
13385 16731 16732 28
13386 16731 16733 28
13387 16731 16734 28
13388 16731 16735 28
13389 16736 16737 28
13390 16736 16738 28
13391 16736 16739 28
13392 16736 16740 28
13393 16741 16742 28
13394 16741 16743 28
13395 16741 16744 28
13396 16741 16745 28
13397 16746 16747 28
13398 16746 16748 28
13399 16746 16749 28
13400 16746 16750 28
13401 16751 16752 28
13402 16751 16753 28
13403 16751 16754 28
13404 16751 16755 28
13405 16756 16757 28
13406 16756 16758 28
13407 16756 16759 28
13408 16756 16760 28
13409 16761 16762 28
13410 16761 16763 28
13411 16761 16764 28
13412 16761 16765 28
13413 16766 16767 28
13414 16766 16768 28
13415 16766 16769 28
13416 16766 16770 28
13417 16771 16772 28
13418 16771 16773 28
13419 16771 16774 28
13420 16771 16775 28
13421 16776 16777 28
13422 16776 16778 28
13423 16776 16779 28
13424 16776 16780 28
13425 16781 16782 28
13426 16781 16783 28
13427 16781 16784 28
13428 16781 16785 28
13429 16786 16787 28
13430 16786 16788 28
13431 16786 16789 28
13432 16786 16790 28
13433 16791 16792 28
13434 16791 16793 28
13435 16791 16794 28
13436 16791 16795 28
13437 16796 16797 28
13438 16796 16798 28
13439 16796 16799 28
13440 16796 16800 28
13441 16801 16802 28
13442 16801 16803 28
13443 16801 16804 28
13444 16801 16805 28
13445 16806 16807 28
13446 16806 16808 28
13447 16806 16809 28
13448 16806 16810 28
13449 16811 16812 28
13450 16811 16813 28
13451 16811 16814 28
13452 16811 16815 28
13453 16816 16817 28
13454 16816 16818 28
13455 16816 16819 28
13456 16816 16820 28
13457 16821 16822 28
13458 16821 16823 28
13459 16821 16824 28
13460 16821 16825 28
13461 16826 16827 28
13462 16826 16828 28
13463 16826 16829 28
13464 16826 16830 28
13465 16831 16832 28
13466 16831 16833 28
13467 16831 16834 28
13468 16831 16835 28
13469 16836 16837 28
13470 16836 16838 28
13471 16836 16839 28
13472 16836 16840 28
13473 16841 16842 28
13474 16841 16843 28
13475 16841 16844 28
13476 16841 16845 28
13477 16846 16847 28
13478 16846 16848 28
13479 16846 16849 28
13480 16846 16850 28
13481 16851 16852 28
13482 16851 16853 28
13483 16851 16854 28
13484 16851 16855 28
13485 16856 16857 28
13486 16856 16858 28
13487 16856 16859 28
13488 16856 16860 28
13489 16861 16862 28
13490 16861 16863 28
13491 16861 16864 28
13492 16861 16865 28
13493 16866 16867 28
13494 16866 16868 28
13495 16866 16869 28
13496 16866 16870 28
13497 16871 16872 28
13498 16871 16873 28
13499 16871 16874 28
13500 16871 16875 28
13501 16876 16877 28
13502 16876 16878 28
13503 16876 16879 28
13504 16876 16880 28
13505 16881 16882 28
13506 16881 16883 28
13507 16881 16884 28
13508 16881 16885 28
13509 16886 16887 28
13510 16886 16888 28
13511 16886 16889 28
13512 16886 16890 28
13513 16891 16892 28
13514 16891 16893 28
13515 16891 16894 28
13516 16891 16895 28
13517 16896 16897 28
13518 16896 16898 28
13519 16896 16899 28
13520 16896 16900 28
13521 16901 16902 28
13522 16901 16903 28
13523 16901 16904 28
13524 16901 16905 28
13525 16906 16907 28
13526 16906 16908 28
13527 16906 16909 28
13528 16906 16910 28
13529 16911 16912 28
13530 16911 16913 28
13531 16911 16914 28
13532 16911 16915 28
13533 16916 16917 28
13534 16916 16918 28
13535 16916 16919 28
13536 16916 16920 28
13537 16921 16922 28
13538 16921 16923 28
13539 16921 16924 28
13540 16921 16925 28
13541 16926 16927 28
13542 16926 16928 28
13543 16926 16929 28
13544 16926 16930 28
13545 16931 16932 28
13546 16931 16933 28
13547 16931 16934 28
13548 16931 16935 28
13549 16936 16937 28
13550 16936 16938 28
13551 16936 16939 28
13552 16936 16940 28
13553 16941 16942 28
13554 16941 16943 28
13555 16941 16944 28
13556 16941 16945 28
13557 16946 16947 28
13558 16946 16948 28
13559 16946 16949 28
13560 16946 16950 28
13561 16951 16952 28
13562 16951 16953 28
13563 16951 16954 28
13564 16951 16955 28
13565 16956 16957 28
13566 16956 16958 28
13567 16956 16959 28
13568 16956 16960 28
13569 16961 16962 28
13570 16961 16963 28
13571 16961 16964 28
13572 16961 16965 28
13573 16966 16967 28
13574 16966 16968 28
13575 16966 16969 28
13576 16966 16970 28
13577 16971 16972 28
13578 16971 16973 28
13579 16971 16974 28
13580 16971 16975 28
13581 16976 16977 28
13582 16976 16978 28
13583 16976 16979 28
13584 16976 16980 28
13585 16981 16982 28
13586 16981 16983 28
13587 16981 16984 28
13588 16981 16985 28
13589 16986 16987 28
13590 16986 16988 28
13591 16986 16989 28
13592 16986 16990 28
13593 16991 16992 28
13594 16991 16993 28
13595 16991 16994 28
13596 16991 16995 28
13597 16996 16997 28
13598 16996 16998 28
13599 16996 16999 28
13600 16996 17000 28
13601 17001 17002 28
13602 17001 17003 28
13603 17001 17004 28
13604 17001 17005 28
13605 17006 17007 28
13606 17006 17008 28
13607 17006 17009 28
13608 17006 17010 28
13609 17011 17012 28
13610 17011 17013 28
13611 17011 17014 28
13612 17011 17015 28
13613 17016 17017 28
13614 17016 17018 28
13615 17016 17019 28
13616 17016 17020 28
13617 17021 17022 28
13618 17021 17023 28
13619 17021 17024 28
13620 17021 17025 28
13621 17026 17027 28
13622 17026 17028 28
13623 17026 17029 28
13624 17026 17030 28
13625 17031 17032 28
13626 17031 17033 28
13627 17031 17034 28
13628 17031 17035 28
13629 17036 17037 28
13630 17036 17038 28
13631 17036 17039 28
13632 17036 17040 28
13633 17041 17042 28
13634 17041 17043 28
13635 17041 17044 28
13636 17041 17045 28
13637 17046 17047 28
13638 17046 17048 28
13639 17046 17049 28
13640 17046 17050 28
13641 17051 17052 28
13642 17051 17053 28
13643 17051 17054 28
13644 17051 17055 28
13645 17056 17057 28
13646 17056 17058 28
13647 17056 17059 28
13648 17056 17060 28
13649 17061 17062 28
13650 17061 17063 28
13651 17061 17064 28
13652 17061 17065 28
13653 17066 17067 28
13654 17066 17068 28
13655 17066 17069 28
13656 17066 17070 28
13657 17071 17072 28
13658 17071 17073 28
13659 17071 17074 28
13660 17071 17075 28
13661 17076 17077 28
13662 17076 17078 28
13663 17076 17079 28
13664 17076 17080 28
13665 17081 17082 28
13666 17081 17083 28
13667 17081 17084 28
13668 17081 17085 28
13669 17086 17087 28
13670 17086 17088 28
13671 17086 17089 28
13672 17086 17090 28
13673 17091 17092 28
13674 17091 17093 28
13675 17091 17094 28
13676 17091 17095 28
13677 17096 17097 28
13678 17096 17098 28
13679 17096 17099 28
13680 17096 17100 28
13681 17101 17102 28
13682 17101 17103 28
13683 17101 17104 28
13684 17101 17105 28
13685 17106 17107 28
13686 17106 17108 28
13687 17106 17109 28
13688 17106 17110 28
13689 17111 17112 28
13690 17111 17113 28
13691 17111 17114 28
13692 17111 17115 28
13693 17116 17117 28
13694 17116 17118 28
13695 17116 17119 28
13696 17116 17120 28
13697 17121 17122 28
13698 17121 17123 28
13699 17121 17124 28
13700 17121 17125 28
13701 17126 17127 28
13702 17126 17128 28
13703 17126 17129 28
13704 17126 17130 28
13705 17131 17132 28
13706 17131 17133 28
13707 17131 17134 28
13708 17131 17135 28
13709 17136 17137 28
13710 17136 17138 28
13711 17136 17139 28
13712 17136 17140 28
13713 17141 17142 28
13714 17141 17143 28
13715 17141 17144 28
13716 17141 17145 28
13717 17146 17147 28
13718 17146 17148 28
13719 17146 17149 28
13720 17146 17150 28
13721 17151 17152 28
13722 17151 17153 28
13723 17151 17154 28
13724 17151 17155 28
13725 17156 17157 28
13726 17156 17158 28
13727 17156 17159 28
13728 17156 17160 28
13729 17161 17162 28
13730 17161 17163 28
13731 17161 17164 28
13732 17161 17165 28
13733 17166 17167 28
13734 17166 17168 28
13735 17166 17169 28
13736 17166 17170 28
13737 17171 17172 28
13738 17171 17173 28
13739 17171 17174 28
13740 17171 17175 28
13741 17176 17177 28
13742 17176 17178 28
13743 17176 17179 28
13744 17176 17180 28
13745 17181 17182 28
13746 17181 17183 28
13747 17181 17184 28
13748 17181 17185 28
13749 17186 17187 28
13750 17186 17188 28
13751 17186 17189 28
13752 17186 17190 28
13753 17191 17192 28
13754 17191 17193 28
13755 17191 17194 28
13756 17191 17195 28
13757 17196 17197 28
13758 17196 17198 28
13759 17196 17199 28
13760 17196 17200 28
13761 17201 17202 28
13762 17201 17203 28
13763 17201 17204 28
13764 17201 17205 28
13765 17206 17207 28
13766 17206 17208 28
13767 17206 17209 28
13768 17206 17210 28
13769 17211 17212 28
13770 17211 17213 28
13771 17211 17214 28
13772 17211 17215 28
13773 17216 17217 28
13774 17216 17218 28
13775 17216 17219 28
13776 17216 17220 28
13777 17221 17222 28
13778 17221 17223 28
13779 17221 17224 28
13780 17221 17225 28
13781 17226 17227 28
13782 17226 17228 28
13783 17226 17229 28
13784 17226 17230 28
13785 17231 17232 28
13786 17231 17233 28
13787 17231 17234 28
13788 17231 17235 28
13789 17236 17237 28
13790 17236 17238 28
13791 17236 17239 28
13792 17236 17240 28
13793 17241 17242 28
13794 17241 17243 28
13795 17241 17244 28
13796 17241 17245 28
13797 17246 17247 28
13798 17246 17248 28
13799 17246 17249 28
13800 17246 17250 28
13801 17251 17252 28
13802 17251 17253 28
13803 17251 17254 28
13804 17251 17255 28
13805 17256 17257 28
13806 17256 17258 28
13807 17256 17259 28
13808 17256 17260 28
13809 17261 17262 28
13810 17261 17263 28
13811 17261 17264 28
13812 17261 17265 28
13813 17266 17267 28
13814 17266 17268 28
13815 17266 17269 28
13816 17266 17270 28
13817 17271 17272 28
13818 17271 17273 28
13819 17271 17274 28
13820 17271 17275 28
13821 17276 17277 28
13822 17276 17278 28
13823 17276 17279 28
13824 17276 17280 28
13825 17281 17282 28
13826 17281 17283 28
13827 17281 17284 28
13828 17281 17285 28
13829 17286 17287 28
13830 17286 17288 28
13831 17286 17289 28
13832 17286 17290 28
13833 17291 17292 28
13834 17291 17293 28
13835 17291 17294 28
13836 17291 17295 28
13837 17296 17297 28
13838 17296 17298 28
13839 17296 17299 28
13840 17296 17300 28
13841 17301 17302 28
13842 17301 17303 28
13843 17301 17304 28
13844 17301 17305 28
13845 17306 17307 28
13846 17306 17308 28
13847 17306 17309 28
13848 17306 17310 28
13849 17311 17312 28
13850 17311 17313 28
13851 17311 17314 28
13852 17311 17315 28
13853 17316 17317 28
13854 17316 17318 28
13855 17316 17319 28
13856 17316 17320 28
13857 17321 17322 28
13858 17321 17323 28
13859 17321 17324 28
13860 17321 17325 28
13861 17326 17327 28
13862 17326 17328 28
13863 17326 17329 28
13864 17326 17330 28
13865 17331 17332 28
13866 17331 17333 28
13867 17331 17334 28
13868 17331 17335 28
13869 17336 17337 28
13870 17336 17338 28
13871 17336 17339 28
13872 17336 17340 28
13873 17341 17342 28
13874 17341 17343 28
13875 17341 17344 28
13876 17341 17345 28
13877 17346 17347 28
13878 17346 17348 28
13879 17346 17349 28
13880 17346 17350 28
13881 17351 17352 28
13882 17351 17353 28
13883 17351 17354 28
13884 17351 17355 28
13885 17356 17357 28
13886 17356 17358 28
13887 17356 17359 28
13888 17356 17360 28
13889 17361 17362 28
13890 17361 17363 28
13891 17361 17364 28
13892 17361 17365 28
13893 17366 17367 28
13894 17366 17368 28
13895 17366 17369 28
13896 17366 17370 28
13897 17371 17372 28
13898 17371 17373 28
13899 17371 17374 28
13900 17371 17375 28
13901 17376 17377 28
13902 17376 17378 28
13903 17376 17379 28
13904 17376 17380 28
13905 17381 17382 28
13906 17381 17383 28
13907 17381 17384 28
13908 17381 17385 28
13909 17386 17387 28
13910 17386 17388 28
13911 17386 17389 28
13912 17386 17390 28
13913 17391 17392 28
13914 17391 17393 28
13915 17391 17394 28
13916 17391 17395 28
13917 17396 17397 28
13918 17396 17398 28
13919 17396 17399 28
13920 17396 17400 28
13921 17401 17402 28
13922 17401 17403 28
13923 17401 17404 28
13924 17401 17405 28
13925 17406 17407 28
13926 17406 17408 28
13927 17406 17409 28
13928 17406 17410 28
13929 17411 17412 28
13930 17411 17413 28
13931 17411 17414 28
13932 17411 17415 28
13933 17416 17417 28
13934 17416 17418 28
13935 17416 17419 28
13936 17416 17420 28
13937 17421 17422 28
13938 17421 17423 28
13939 17421 17424 28
13940 17421 17425 28
13941 17426 17427 28
13942 17426 17428 28
13943 17426 17429 28
13944 17426 17430 28
13945 17431 17432 28
13946 17431 17433 28
13947 17431 17434 28
13948 17431 17435 28
13949 17436 17437 28
13950 17436 17438 28
13951 17436 17439 28
13952 17436 17440 28
13953 17441 17442 28
13954 17441 17443 28
13955 17441 17444 28
13956 17441 17445 28
13957 17446 17447 28
13958 17446 17448 28
13959 17446 17449 28
13960 17446 17450 28
13961 17451 17452 28
13962 17451 17453 28
13963 17451 17454 28
13964 17451 17455 28
13965 17456 17457 28
13966 17456 17458 28
13967 17456 17459 28
13968 17456 17460 28
13969 17461 17462 28
13970 17461 17463 28
13971 17461 17464 28
13972 17461 17465 28
13973 17466 17467 28
13974 17466 17468 28
13975 17466 17469 28
13976 17466 17470 28
13977 17471 17472 28
13978 17471 17473 28
13979 17471 17474 28
13980 17471 17475 28
13981 17476 17477 28
13982 17476 17478 28
13983 17476 17479 28
13984 17476 17480 28
13985 17481 17482 28
13986 17481 17483 28
13987 17481 17484 28
13988 17481 17485 28
13989 17486 17487 28
13990 17486 17488 28
13991 17486 17489 28
13992 17486 17490 28
13993 17491 17492 28
13994 17491 17493 28
13995 17491 17494 28
13996 17491 17495 28
13997 17496 17497 28
13998 17496 17498 28
13999 17496 17499 28
14000 17496 17500 28
14001 17501 17502 28
14002 17501 17503 28
14003 17501 17504 28
14004 17501 17505 28
14005 17506 17507 28
14006 17506 17508 28
14007 17506 17509 28
14008 17506 17510 28
14009 17511 17512 28
14010 17511 17513 28
14011 17511 17514 28
14012 17511 17515 28
14013 17516 17517 28
14014 17516 17518 28
14015 17516 17519 28
14016 17516 17520 28
14017 17521 17522 28
14018 17521 17523 28
14019 17521 17524 28
14020 17521 17525 28
14021 17526 17527 28
14022 17526 17528 28
14023 17526 17529 28
14024 17526 17530 28
14025 17531 17532 28
14026 17531 17533 28
14027 17531 17534 28
14028 17531 17535 28
14029 17536 17537 28
14030 17536 17538 28
14031 17536 17539 28
14032 17536 17540 28
14033 17541 17542 28
14034 17541 17543 28
14035 17541 17544 28
14036 17541 17545 28
14037 17546 17547 28
14038 17546 17548 28
14039 17546 17549 28
14040 17546 17550 28
14041 17551 17552 28
14042 17551 17553 28
14043 17551 17554 28
14044 17551 17555 28
14045 17556 17557 28
14046 17556 17558 28
14047 17556 17559 28
14048 17556 17560 28
14049 17561 17562 28
14050 17561 17563 28
14051 17561 17564 28
14052 17561 17565 28
14053 17566 17567 28
14054 17566 17568 28
14055 17566 17569 28
14056 17566 17570 28
14057 17571 17572 28
14058 17571 17573 28
14059 17571 17574 28
14060 17571 17575 28
14061 17576 17577 28
14062 17576 17578 28
14063 17576 17579 28
14064 17576 17580 28
14065 17581 17582 28
14066 17581 17583 28
14067 17581 17584 28
14068 17581 17585 28
14069 17586 17587 28
14070 17586 17588 28
14071 17586 17589 28
14072 17586 17590 28
14073 17591 17592 28
14074 17591 17593 28
14075 17591 17594 28
14076 17591 17595 28
14077 17596 17597 28
14078 17596 17598 28
14079 17596 17599 28
14080 17596 17600 28
14081 17601 17602 28
14082 17601 17603 28
14083 17601 17604 28
14084 17601 17605 28
14085 17606 17607 28
14086 17606 17608 28
14087 17606 17609 28
14088 17606 17610 28
14089 17611 17612 28
14090 17611 17613 28
14091 17611 17614 28
14092 17611 17615 28
14093 17616 17617 28
14094 17616 17618 28
14095 17616 17619 28
14096 17616 17620 28
14097 17621 17622 28
14098 17621 17623 28
14099 17621 17624 28
14100 17621 17625 28
14101 17626 17627 28
14102 17626 17628 28
14103 17626 17629 28
14104 17626 17630 28
14105 17631 17632 28
14106 17631 17633 28
14107 17631 17634 28
14108 17631 17635 28
14109 17636 17637 28
14110 17636 17638 28
14111 17636 17639 28
14112 17636 17640 28
14113 17641 17642 28
14114 17641 17643 28
14115 17641 17644 28
14116 17641 17645 28
14117 17646 17647 28
14118 17646 17648 28
14119 17646 17649 28
14120 17646 17650 28
14121 17651 17652 28
14122 17651 17653 28
14123 17651 17654 28
14124 17651 17655 28
14125 17656 17657 28
14126 17656 17658 28
14127 17656 17659 28
14128 17656 17660 28
14129 17661 17662 28
14130 17661 17663 28
14131 17661 17664 28
14132 17661 17665 28
14133 17666 17667 28
14134 17666 17668 28
14135 17666 17669 28
14136 17666 17670 28
14137 17671 17672 28
14138 17671 17673 28
14139 17671 17674 28
14140 17671 17675 28
14141 17676 17677 28
14142 17676 17678 28
14143 17676 17679 28
14144 17676 17680 28
14145 17681 17682 28
14146 17681 17683 28
14147 17681 17684 28
14148 17681 17685 28
14149 17686 17687 28
14150 17686 17688 28
14151 17686 17689 28
14152 17686 17690 28
14153 17691 17692 28
14154 17691 17693 28
14155 17691 17694 28
14156 17691 17695 28
14157 17696 17697 28
14158 17696 17698 28
14159 17696 17699 28
14160 17696 17700 28
14161 17701 17702 28
14162 17701 17703 28
14163 17701 17704 28
14164 17701 17705 28
14165 17706 17707 28
14166 17706 17708 28
14167 17706 17709 28
14168 17706 17710 28
14169 17711 17712 28
14170 17711 17713 28
14171 17711 17714 28
14172 17711 17715 28
14173 17716 17717 28
14174 17716 17718 28
14175 17716 17719 28
14176 17716 17720 28
14177 17721 17722 28
14178 17721 17723 28
14179 17721 17724 28
14180 17721 17725 28
14181 17726 17727 28
14182 17726 17728 28
14183 17726 17729 28
14184 17726 17730 28
14185 17731 17732 28
14186 17731 17733 28
14187 17731 17734 28
14188 17731 17735 28
14189 17736 17737 28
14190 17736 17738 28
14191 17736 17739 28
14192 17736 17740 28
14193 17741 17742 28
14194 17741 17743 28
14195 17741 17744 28
14196 17741 17745 28
14197 17746 17747 28
14198 17746 17748 28
14199 17746 17749 28
14200 17746 17750 28
14201 17751 17752 28
14202 17751 17753 28
14203 17751 17754 28
14204 17751 17755 28
14205 17756 17757 28
14206 17756 17758 28
14207 17756 17759 28
14208 17756 17760 28
14209 17761 17762 28
14210 17761 17763 28
14211 17761 17764 28
14212 17761 17765 28
14213 17766 17767 28
14214 17766 17768 28
14215 17766 17769 28
14216 17766 17770 28
14217 17771 17772 28
14218 17771 17773 28
14219 17771 17774 28
14220 17771 17775 28
14221 17776 17777 28
14222 17776 17778 28
14223 17776 17779 28
14224 17776 17780 28
14225 17781 17782 28
14226 17781 17783 28
14227 17781 17784 28
14228 17781 17785 28
14229 17786 17787 28
14230 17786 17788 28
14231 17786 17789 28
14232 17786 17790 28
14233 17791 17792 28
14234 17791 17793 28
14235 17791 17794 28
14236 17791 17795 28
14237 17796 17797 28
14238 17796 17798 28
14239 17796 17799 28
14240 17796 17800 28
14241 17801 17802 28
14242 17801 17803 28
14243 17801 17804 28
14244 17801 17805 28
14245 17806 17807 28
14246 17806 17808 28
14247 17806 17809 28
14248 17806 17810 28
14249 17811 17812 28
14250 17811 17813 28
14251 17811 17814 28
14252 17811 17815 28
14253 17816 17817 28
14254 17816 17818 28
14255 17816 17819 28
14256 17816 17820 28
14257 17821 17822 28
14258 17821 17823 28
14259 17821 17824 28
14260 17821 17825 28
14261 17826 17827 28
14262 17826 17828 28
14263 17826 17829 28
14264 17826 17830 28
14265 17831 17832 28
14266 17831 17833 28
14267 17831 17834 28
14268 17831 17835 28
14269 17836 17837 28
14270 17836 17838 28
14271 17836 17839 28
14272 17836 17840 28
14273 17841 17842 28
14274 17841 17843 28
14275 17841 17844 28
14276 17841 17845 28
14277 17846 17847 28
14278 17846 17848 28
14279 17846 17849 28
14280 17846 17850 28
14281 17851 17852 28
14282 17851 17853 28
14283 17851 17854 28
14284 17851 17855 28
14285 17856 17857 28
14286 17856 17858 28
14287 17856 17859 28
14288 17856 17860 28
14289 17861 17862 28
14290 17861 17863 28
14291 17861 17864 28
14292 17861 17865 28
14293 17866 17867 28
14294 17866 17868 28
14295 17866 17869 28
14296 17866 17870 28
14297 17871 17872 28
14298 17871 17873 28
14299 17871 17874 28
14300 17871 17875 28
14301 17876 17877 28
14302 17876 17878 28
14303 17876 17879 28
14304 17876 17880 28
14305 17881 17882 28
14306 17881 17883 28
14307 17881 17884 28
14308 17881 17885 28
14309 17886 17887 28
14310 17886 17888 28
14311 17886 17889 28
14312 17886 17890 28
14313 17891 17892 28
14314 17891 17893 28
14315 17891 17894 28
14316 17891 17895 28
14317 17896 17897 28
14318 17896 17898 28
14319 17896 17899 28
14320 17896 17900 28
14321 17901 17902 28
14322 17901 17903 28
14323 17901 17904 28
14324 17901 17905 28
14325 17906 17907 28
14326 17906 17908 28
14327 17906 17909 28
14328 17906 17910 28
14329 17911 17912 28
14330 17911 17913 28
14331 17911 17914 28
14332 17911 17915 28
14333 17916 17917 28
14334 17916 17918 28
14335 17916 17919 28
14336 17916 17920 28
14337 17921 17922 28
14338 17921 17923 28
14339 17921 17924 28
14340 17921 17925 28
14341 17926 17927 28
14342 17926 17928 28
14343 17926 17929 28
14344 17926 17930 28
14345 17931 17932 28
14346 17931 17933 28
14347 17931 17934 28
14348 17931 17935 28
14349 17936 17937 28
14350 17936 17938 28
14351 17936 17939 28
14352 17936 17940 28
14353 17941 17942 28
14354 17941 17943 28
14355 17941 17944 28
14356 17941 17945 28
14357 17946 17947 28
14358 17946 17948 28
14359 17946 17949 28
14360 17946 17950 28
14361 17951 17952 28
14362 17951 17953 28
14363 17951 17954 28
14364 17951 17955 28
14365 17956 17957 28
14366 17956 17958 28
14367 17956 17959 28
14368 17956 17960 28
14369 17961 17962 28
14370 17961 17963 28
14371 17961 17964 28
14372 17961 17965 28
14373 17966 17967 28
14374 17966 17968 28
14375 17966 17969 28
14376 17966 17970 28
14377 17971 17972 28
14378 17971 17973 28
14379 17971 17974 28
14380 17971 17975 28
14381 17976 17977 28
14382 17976 17978 28
14383 17976 17979 28
14384 17976 17980 28
14385 17981 17982 28
14386 17981 17983 28
14387 17981 17984 28
14388 17981 17985 28
14389 17986 17987 28
14390 17986 17988 28
14391 17986 17989 28
14392 17986 17990 28
14393 17991 17992 28
14394 17991 17993 28
14395 17991 17994 28
14396 17991 17995 28
14397 17996 17997 28
14398 17996 17998 28
14399 17996 17999 28
14400 17996 18000 28
14401 18001 18002 28
14402 18001 18003 28
14403 18001 18004 28
14404 18001 18005 28
14405 18006 18007 28
14406 18006 18008 28
14407 18006 18009 28
14408 18006 18010 28
14409 18011 18012 28
14410 18011 18013 28
14411 18011 18014 28
14412 18011 18015 28
14413 18016 18017 28
14414 18016 18018 28
14415 18016 18019 28
14416 18016 18020 28
14417 18021 18022 28
14418 18021 18023 28
14419 18021 18024 28
14420 18021 18025 28
14421 18026 18027 28
14422 18026 18028 28
14423 18026 18029 28
14424 18026 18030 28
14425 18031 18032 28
14426 18031 18033 28
14427 18031 18034 28
14428 18031 18035 28
14429 18036 18037 28
14430 18036 18038 28
14431 18036 18039 28
14432 18036 18040 28
14433 18041 18042 28
14434 18041 18043 28
14435 18041 18044 28
14436 18041 18045 28
14437 18046 18047 28
14438 18046 18048 28
14439 18046 18049 28
14440 18046 18050 28
14441 18051 18052 28
14442 18051 18053 28
14443 18051 18054 28
14444 18051 18055 28
14445 18056 18057 28
14446 18056 18058 28
14447 18056 18059 28
14448 18056 18060 28
14449 18061 18062 28
14450 18061 18063 28
14451 18061 18064 28
14452 18061 18065 28
14453 18066 18067 28
14454 18066 18068 28
14455 18066 18069 28
14456 18066 18070 28
14457 18071 18072 28
14458 18071 18073 28
14459 18071 18074 28
14460 18071 18075 28
14461 18076 18077 28
14462 18076 18078 28
14463 18076 18079 28
14464 18076 18080 28
14465 18081 18082 28
14466 18081 18083 28
14467 18081 18084 28
14468 18081 18085 28
14469 18086 18087 28
14470 18086 18088 28
14471 18086 18089 28
14472 18086 18090 28
14473 18091 18092 28
14474 18091 18093 28
14475 18091 18094 28
14476 18091 18095 28
14477 18096 18097 28
14478 18096 18098 28
14479 18096 18099 28
14480 18096 18100 28
14481 18101 18102 28
14482 18101 18103 28
14483 18101 18104 28
14484 18101 18105 28
14485 18106 18107 28
14486 18106 18108 28
14487 18106 18109 28
14488 18106 18110 28
14489 18111 18112 28
14490 18111 18113 28
14491 18111 18114 28
14492 18111 18115 28
14493 18116 18117 28
14494 18116 18118 28
14495 18116 18119 28
14496 18116 18120 28
14497 18121 18122 28
14498 18121 18123 28
14499 18121 18124 28
14500 18121 18125 28
14501 18126 18127 28
14502 18126 18128 28
14503 18126 18129 28
14504 18126 18130 28
14505 18131 18132 28
14506 18131 18133 28
14507 18131 18134 28
14508 18131 18135 28
14509 18136 18137 28
14510 18136 18138 28
14511 18136 18139 28
14512 18136 18140 28
14513 18141 18142 28
14514 18141 18143 28
14515 18141 18144 28
14516 18141 18145 28
14517 18146 18147 28
14518 18146 18148 28
14519 18146 18149 28
14520 18146 18150 28
14521 18151 18152 28
14522 18151 18153 28
14523 18151 18154 28
14524 18151 18155 28
14525 18156 18157 28
14526 18156 18158 28
14527 18156 18159 28
14528 18156 18160 28
14529 18161 18162 28
14530 18161 18163 28
14531 18161 18164 28
14532 18161 18165 28
14533 18166 18167 28
14534 18166 18168 28
14535 18166 18169 28
14536 18166 18170 28
14537 18171 18172 28
14538 18171 18173 28
14539 18171 18174 28
14540 18171 18175 28
14541 18176 18177 28
14542 18176 18178 28
14543 18176 18179 28
14544 18176 18180 28
14545 18181 18182 28
14546 18181 18183 28
14547 18181 18184 28
14548 18181 18185 28
14549 18186 18187 28
14550 18186 18188 28
14551 18186 18189 28
14552 18186 18190 28
14553 18191 18192 28
14554 18191 18193 28
14555 18191 18194 28
14556 18191 18195 28
14557 18196 18197 28
14558 18196 18198 28
14559 18196 18199 28
14560 18196 18200 28
14561 18201 18202 28
14562 18201 18203 28
14563 18201 18204 28
14564 18201 18205 28
14565 18206 18207 28
14566 18206 18208 28
14567 18206 18209 28
14568 18206 18210 28
14569 18211 18212 28
14570 18211 18213 28
14571 18211 18214 28
14572 18211 18215 28
14573 18216 18217 28
14574 18216 18218 28
14575 18216 18219 28
14576 18216 18220 28
14577 18221 18222 28
14578 18221 18223 28
14579 18221 18224 28
14580 18221 18225 28
14581 18226 18227 28
14582 18226 18228 28
14583 18226 18229 28
14584 18226 18230 28
14585 18231 18232 28
14586 18231 18233 28
14587 18231 18234 28
14588 18231 18235 28
14589 18236 18237 28
14590 18236 18238 28
14591 18236 18239 28
14592 18236 18240 28
14593 18241 18242 28
14594 18241 18243 28
14595 18241 18244 28
14596 18241 18245 28
14597 18246 18247 28
14598 18246 18248 28
14599 18246 18249 28
14600 18246 18250 28
14601 18251 18252 28
14602 18251 18253 28
14603 18251 18254 28
14604 18251 18255 28
14605 18256 18257 28
14606 18256 18258 28
14607 18256 18259 28
14608 18256 18260 28
14609 18261 18262 28
14610 18261 18263 28
14611 18261 18264 28
14612 18261 18265 28
14613 18266 18267 28
14614 18266 18268 28
14615 18266 18269 28
14616 18266 18270 28
14617 18271 18272 28
14618 18271 18273 28
14619 18271 18274 28
14620 18271 18275 28
14621 18276 18277 28
14622 18276 18278 28
14623 18276 18279 28
14624 18276 18280 28
14625 18281 18282 28
14626 18281 18283 28
14627 18281 18284 28
14628 18281 18285 28
14629 18286 18287 28
14630 18286 18288 28
14631 18286 18289 28
14632 18286 18290 28
14633 18291 18292 28
14634 18291 18293 28
14635 18291 18294 28
14636 18291 18295 28
14637 18296 18297 28
14638 18296 18298 28
14639 18296 18299 28
14640 18296 18300 28
14641 18301 18302 28
14642 18301 18303 28
14643 18301 18304 28
14644 18301 18305 28
14645 18306 18307 28
14646 18306 18308 28
14647 18306 18309 28
14648 18306 18310 28
14649 18311 18312 28
14650 18311 18313 28
14651 18311 18314 28
14652 18311 18315 28
14653 18316 18317 28
14654 18316 18318 28
14655 18316 18319 28
14656 18316 18320 28
14657 18321 18322 28
14658 18321 18323 28
14659 18321 18324 28
14660 18321 18325 28
14661 18326 18327 28
14662 18326 18328 28
14663 18326 18329 28
14664 18326 18330 28
14665 18331 18332 28
14666 18331 18333 28
14667 18331 18334 28
14668 18331 18335 28
14669 18336 18337 28
14670 18336 18338 28
14671 18336 18339 28
14672 18336 18340 28
14673 18341 18342 28
14674 18341 18343 28
14675 18341 18344 28
14676 18341 18345 28
14677 18346 18347 28
14678 18346 18348 28
14679 18346 18349 28
14680 18346 18350 28
14681 18351 18352 28
14682 18351 18353 28
14683 18351 18354 28
14684 18351 18355 28
14685 18356 18357 28
14686 18356 18358 28
14687 18356 18359 28
14688 18356 18360 28
14689 18361 18362 28
14690 18361 18363 28
14691 18361 18364 28
14692 18361 18365 28
14693 18366 18367 28
14694 18366 18368 28
14695 18366 18369 28
14696 18366 18370 28
14697 18371 18372 28
14698 18371 18373 28
14699 18371 18374 28
14700 18371 18375 28
14701 18376 18377 28
14702 18376 18378 28
14703 18376 18379 28
14704 18376 18380 28
14705 18381 18382 28
14706 18381 18383 28
14707 18381 18384 28
14708 18381 18385 28
14709 18386 18387 28
14710 18386 18388 28
14711 18386 18389 28
14712 18386 18390 28
14713 18391 18392 28
14714 18391 18393 28
14715 18391 18394 28
14716 18391 18395 28
14717 18396 18397 28
14718 18396 18398 28
14719 18396 18399 28
14720 18396 18400 28
14721 18401 18402 28
14722 18401 18403 28
14723 18401 18404 28
14724 18401 18405 28
14725 18406 18407 28
14726 18406 18408 28
14727 18406 18409 28
14728 18406 18410 28
14729 18411 18412 28
14730 18411 18413 28
14731 18411 18414 28
14732 18411 18415 28
14733 18416 18417 28
14734 18416 18418 28
14735 18416 18419 28
14736 18416 18420 28
14737 18421 18422 28
14738 18421 18423 28
14739 18421 18424 28
14740 18421 18425 28
14741 18426 18427 28
14742 18426 18428 28
14743 18426 18429 28
14744 18426 18430 28
14745 18431 18432 28
14746 18431 18433 28
14747 18431 18434 28
14748 18431 18435 28
14749 18436 18437 28
14750 18436 18438 28
14751 18436 18439 28
14752 18436 18440 28
14753 18441 18442 28
14754 18441 18443 28
14755 18441 18444 28
14756 18441 18445 28
14757 18446 18447 28
14758 18446 18448 28
14759 18446 18449 28
14760 18446 18450 28
14761 18451 18452 28
14762 18451 18453 28
14763 18451 18454 28
14764 18451 18455 28
14765 18456 18457 28
14766 18456 18458 28
14767 18456 18459 28
14768 18456 18460 28
14769 18461 18462 28
14770 18461 18463 28
14771 18461 18464 28
14772 18461 18465 28
14773 18466 18467 28
14774 18466 18468 28
14775 18466 18469 28
14776 18466 18470 28
14777 18471 18472 28
14778 18471 18473 28
14779 18471 18474 28
14780 18471 18475 28
14781 18476 18477 28
14782 18476 18478 28
14783 18476 18479 28
14784 18476 18480 28
14785 18481 18482 28
14786 18481 18483 28
14787 18481 18484 28
14788 18481 18485 28
14789 18486 18487 28
14790 18486 18488 28
14791 18486 18489 28
14792 18486 18490 28
14793 18491 18492 28
14794 18491 18493 28
14795 18491 18494 28
14796 18491 18495 28
14797 18496 18497 28
14798 18496 18498 28
14799 18496 18499 28
14800 18496 18500 28
14801 18501 18502 28
14802 18501 18503 28
14803 18501 18504 28
14804 18501 18505 28
14805 18506 18507 28
14806 18506 18508 28
14807 18506 18509 28
14808 18506 18510 28
14809 18511 18512 28
14810 18511 18513 28
14811 18511 18514 28
14812 18511 18515 28
14813 18516 18517 28
14814 18516 18518 28
14815 18516 18519 28
14816 18516 18520 28
14817 18521 18522 28
14818 18521 18523 28
14819 18521 18524 28
14820 18521 18525 28
14821 18526 18527 28
14822 18526 18528 28
14823 18526 18529 28
14824 18526 18530 28
14825 18531 18532 28
14826 18531 18533 28
14827 18531 18534 28
14828 18531 18535 28
14829 18536 18537 28
14830 18536 18538 28
14831 18536 18539 28
14832 18536 18540 28
14833 18541 18542 28
14834 18541 18543 28
14835 18541 18544 28
14836 18541 18545 28
14837 18546 18547 28
14838 18546 18548 28
14839 18546 18549 28
14840 18546 18550 28
14841 18551 18552 28
14842 18551 18553 28
14843 18551 18554 28
14844 18551 18555 28
14845 18556 18557 28
14846 18556 18558 28
14847 18556 18559 28
14848 18556 18560 28
14849 18561 18562 28
14850 18561 18563 28
14851 18561 18564 28
14852 18561 18565 28
14853 18566 18567 28
14854 18566 18568 28
14855 18566 18569 28
14856 18566 18570 28
14857 18571 18572 28
14858 18571 18573 28
14859 18571 18574 28
14860 18571 18575 28
14861 18576 18577 28
14862 18576 18578 28
14863 18576 18579 28
14864 18576 18580 28
14865 18581 18582 28
14866 18581 18583 28
14867 18581 18584 28
14868 18581 18585 28
14869 18586 18587 28
14870 18586 18588 28
14871 18586 18589 28
14872 18586 18590 28
14873 18591 18592 28
14874 18591 18593 28
14875 18591 18594 28
14876 18591 18595 28
14877 18596 18597 28
14878 18596 18598 28
14879 18596 18599 28
14880 18596 18600 28
14881 18601 18602 28
14882 18601 18603 28
14883 18601 18604 28
14884 18601 18605 28
14885 18606 18607 28
14886 18606 18608 28
14887 18606 18609 28
14888 18606 18610 28
14889 18611 18612 28
14890 18611 18613 28
14891 18611 18614 28
14892 18611 18615 28
14893 18616 18617 28
14894 18616 18618 28
14895 18616 18619 28
14896 18616 18620 28
14897 18621 18622 28
14898 18621 18623 28
14899 18621 18624 28
14900 18621 18625 28
14901 18626 18627 28
14902 18626 18628 28
14903 18626 18629 28
14904 18626 18630 28
14905 18631 18632 28
14906 18631 18633 28
14907 18631 18634 28
14908 18631 18635 28
14909 18636 18637 28
14910 18636 18638 28
14911 18636 18639 28
14912 18636 18640 28
14913 18641 18642 28
14914 18641 18643 28
14915 18641 18644 28
14916 18641 18645 28
14917 18646 18647 28
14918 18646 18648 28
14919 18646 18649 28
14920 18646 18650 28
14921 18651 18652 28
14922 18651 18653 28
14923 18651 18654 28
14924 18651 18655 28
14925 18656 18657 28
14926 18656 18658 28
14927 18656 18659 28
14928 18656 18660 28
14929 18661 18662 28
14930 18661 18663 28
14931 18661 18664 28
14932 18661 18665 28
14933 18666 18667 28
14934 18666 18668 28
14935 18666 18669 28
14936 18666 18670 28
14937 18671 18672 28
14938 18671 18673 28
14939 18671 18674 28
14940 18671 18675 28
14941 18676 18677 28
14942 18676 18678 28
14943 18676 18679 28
14944 18676 18680 28
14945 18681 18682 28
14946 18681 18683 28
14947 18681 18684 28
14948 18681 18685 28
14949 18686 18687 28
14950 18686 18688 28
14951 18686 18689 28
14952 18686 18690 28
14953 18691 18692 28
14954 18691 18693 28
14955 18691 18694 28
14956 18691 18695 28
14957 18696 18697 28
14958 18696 18698 28
14959 18696 18699 28
14960 18696 18700 28
14961 18701 18702 28
14962 18701 18703 28
14963 18701 18704 28
14964 18701 18705 28
14965 18706 18707 28
14966 18706 18708 28
14967 18706 18709 28
14968 18706 18710 28
14969 18711 18712 28
14970 18711 18713 28
14971 18711 18714 28
14972 18711 18715 28
14973 18716 18717 28
14974 18716 18718 28
14975 18716 18719 28
14976 18716 18720 28
14977 18721 18722 28
14978 18721 18723 28
14979 18721 18724 28
14980 18721 18725 28
14981 18726 18727 28
14982 18726 18728 28
14983 18726 18729 28
14984 18726 18730 28
14985 18731 18732 28
14986 18731 18733 28
14987 18731 18734 28
14988 18731 18735 28
14989 18736 18737 28
14990 18736 18738 28
14991 18736 18739 28
14992 18736 18740 28
14993 18741 18742 28
14994 18741 18743 28
14995 18741 18744 28
14996 18741 18745 28
14997 18746 18747 28
14998 18746 18748 28
14999 18746 18749 28
15000 18746 18750 28
15001 18751 18752 28
15002 18751 18753 28
15003 18751 18754 28
15004 18751 18755 28
15005 18756 18757 28
15006 18756 18758 28
15007 18756 18759 28
15008 18756 18760 28
15009 18761 18762 28
15010 18761 18763 28
15011 18761 18764 28
15012 18761 18765 28
15013 18766 18767 28
15014 18766 18768 28
15015 18766 18769 28
15016 18766 18770 28
15017 18771 18772 28
15018 18771 18773 28
15019 18771 18774 28
15020 18771 18775 28
15021 18776 18777 28
15022 18776 18778 28
15023 18776 18779 28
15024 18776 18780 28
15025 18781 18782 28
15026 18781 18783 28
15027 18781 18784 28
15028 18781 18785 28
15029 18786 18787 28
15030 18786 18788 28
15031 18786 18789 28
15032 18786 18790 28
15033 18791 18792 28
15034 18791 18793 28
15035 18791 18794 28
15036 18791 18795 28
15037 18796 18797 28
15038 18796 18798 28
15039 18796 18799 28
15040 18796 18800 28
15041 18801 18802 28
15042 18801 18803 28
15043 18801 18804 28
15044 18801 18805 28
15045 18806 18807 28
15046 18806 18808 28
15047 18806 18809 28
15048 18806 18810 28
15049 18811 18812 28
15050 18811 18813 28
15051 18811 18814 28
15052 18811 18815 28
15053 18816 18817 28
15054 18816 18818 28
15055 18816 18819 28
15056 18816 18820 28
15057 18821 18822 28
15058 18821 18823 28
15059 18821 18824 28
15060 18821 18825 28
15061 18826 18827 28
15062 18826 18828 28
15063 18826 18829 28
15064 18826 18830 28
15065 18831 18832 28
15066 18831 18833 28
15067 18831 18834 28
15068 18831 18835 28
15069 18836 18837 28
15070 18836 18838 28
15071 18836 18839 28
15072 18836 18840 28
15073 18841 18842 28
15074 18841 18843 28
15075 18841 18844 28
15076 18841 18845 28
15077 18846 18847 28
15078 18846 18848 28
15079 18846 18849 28
15080 18846 18850 28
15081 18851 18852 28
15082 18851 18853 28
15083 18851 18854 28
15084 18851 18855 28
15085 18856 18857 28
15086 18856 18858 28
15087 18856 18859 28
15088 18856 18860 28
15089 18861 18862 28
15090 18861 18863 28
15091 18861 18864 28
15092 18861 18865 28
15093 18866 18867 28
15094 18866 18868 28
15095 18866 18869 28
15096 18866 18870 28
15097 18871 18872 28
15098 18871 18873 28
15099 18871 18874 28
15100 18871 18875 28
15101 18876 18877 28
15102 18876 18878 28
15103 18876 18879 28
15104 18876 18880 28
15105 18881 18882 28
15106 18881 18883 28
15107 18881 18884 28
15108 18881 18885 28
15109 18886 18887 28
15110 18886 18888 28
15111 18886 18889 28
15112 18886 18890 28
15113 18891 18892 28
15114 18891 18893 28
15115 18891 18894 28
15116 18891 18895 28
15117 18896 18897 28
15118 18896 18898 28
15119 18896 18899 28
15120 18896 18900 28
15121 18901 18902 28
15122 18901 18903 28
15123 18901 18904 28
15124 18901 18905 28
15125 18906 18907 28
15126 18906 18908 28
15127 18906 18909 28
15128 18906 18910 28
15129 18911 18912 28
15130 18911 18913 28
15131 18911 18914 28
15132 18911 18915 28
15133 18916 18917 28
15134 18916 18918 28
15135 18916 18919 28
15136 18916 18920 28
15137 18921 18922 28
15138 18921 18923 28
15139 18921 18924 28
15140 18921 18925 28
15141 18926 18927 28
15142 18926 18928 28
15143 18926 18929 28
15144 18926 18930 28
15145 18931 18932 28
15146 18931 18933 28
15147 18931 18934 28
15148 18931 18935 28
15149 18936 18937 28
15150 18936 18938 28
15151 18936 18939 28
15152 18936 18940 28
15153 18941 18942 28
15154 18941 18943 28
15155 18941 18944 28
15156 18941 18945 28
15157 18946 18947 28
15158 18946 18948 28
15159 18946 18949 28
15160 18946 18950 28
15161 18951 18952 28
15162 18951 18953 28
15163 18951 18954 28
15164 18951 18955 28
15165 18956 18957 28
15166 18956 18958 28
15167 18956 18959 28
15168 18956 18960 28
15169 18961 18962 28
15170 18961 18963 28
15171 18961 18964 28
15172 18961 18965 28
15173 18966 18967 28
15174 18966 18968 28
15175 18966 18969 28
15176 18966 18970 28
15177 18971 18972 28
15178 18971 18973 28
15179 18971 18974 28
15180 18971 18975 28
15181 18976 18977 28
15182 18976 18978 28
15183 18976 18979 28
15184 18976 18980 28
15185 18981 18982 28
15186 18981 18983 28
15187 18981 18984 28
15188 18981 18985 28
15189 18986 18987 28
15190 18986 18988 28
15191 18986 18989 28
15192 18986 18990 28
15193 18991 18992 28
15194 18991 18993 28
15195 18991 18994 28
15196 18991 18995 28
15197 18996 18997 28
15198 18996 18998 28
15199 18996 18999 28
15200 18996 19000 28
15201 19001 19002 28
15202 19001 19003 28
15203 19001 19004 28
15204 19001 19005 28
15205 19006 19007 28
15206 19006 19008 28
15207 19006 19009 28
15208 19006 19010 28
15209 19011 19012 28
15210 19011 19013 28
15211 19011 19014 28
15212 19011 19015 28
15213 19016 19017 28
15214 19016 19018 28
15215 19016 19019 28
15216 19016 19020 28
15217 19021 19022 28
15218 19021 19023 28
15219 19021 19024 28
15220 19021 19025 28
15221 19026 19027 28
15222 19026 19028 28
15223 19026 19029 28
15224 19026 19030 28
15225 19031 19032 28
15226 19031 19033 28
15227 19031 19034 28
15228 19031 19035 28
15229 19036 19037 28
15230 19036 19038 28
15231 19036 19039 28
15232 19036 19040 28
15233 19041 19042 28
15234 19041 19043 28
15235 19041 19044 28
15236 19041 19045 28
15237 19046 19047 28
15238 19046 19048 28
15239 19046 19049 28
15240 19046 19050 28
15241 19051 19052 28
15242 19051 19053 28
15243 19051 19054 28
15244 19051 19055 28
15245 19056 19057 28
15246 19056 19058 28
15247 19056 19059 28
15248 19056 19060 28
15249 19061 19062 28
15250 19061 19063 28
15251 19061 19064 28
15252 19061 19065 28
15253 19066 19067 28
15254 19066 19068 28
15255 19066 19069 28
15256 19066 19070 28
15257 19071 19072 28
15258 19071 19073 28
15259 19071 19074 28
15260 19071 19075 28
15261 19076 19077 28
15262 19076 19078 28
15263 19076 19079 28
15264 19076 19080 28
15265 19081 19082 28
15266 19081 19083 28
15267 19081 19084 28
15268 19081 19085 28
15269 19086 19087 28
15270 19086 19088 28
15271 19086 19089 28
15272 19086 19090 28
15273 19091 19092 28
15274 19091 19093 28
15275 19091 19094 28
15276 19091 19095 28
15277 19096 19097 28
15278 19096 19098 28
15279 19096 19099 28
15280 19096 19100 28
15281 19101 19102 28
15282 19101 19103 28
15283 19101 19104 28
15284 19101 19105 28
15285 19106 19107 28
15286 19106 19108 28
15287 19106 19109 28
15288 19106 19110 28
15289 19111 19112 28
15290 19111 19113 28
15291 19111 19114 28
15292 19111 19115 28
15293 19116 19117 28
15294 19116 19118 28
15295 19116 19119 28
15296 19116 19120 28
15297 19121 19122 28
15298 19121 19123 28
15299 19121 19124 28
15300 19121 19125 28
15301 19126 19127 28
15302 19126 19128 28
15303 19126 19129 28
15304 19126 19130 28
15305 19131 19132 28
15306 19131 19133 28
15307 19131 19134 28
15308 19131 19135 28
15309 19136 19137 28
15310 19136 19138 28
15311 19136 19139 28
15312 19136 19140 28
15313 19141 19142 28
15314 19141 19143 28
15315 19141 19144 28
15316 19141 19145 28
15317 19146 19147 28
15318 19146 19148 28
15319 19146 19149 28
15320 19146 19150 28
15321 19151 19152 28
15322 19151 19153 28
15323 19151 19154 28
15324 19151 19155 28
15325 19156 19157 28
15326 19156 19158 28
15327 19156 19159 28
15328 19156 19160 28
15329 19161 19162 28
15330 19161 19163 28
15331 19161 19164 28
15332 19161 19165 28
15333 19166 19167 28
15334 19166 19168 28
15335 19166 19169 28
15336 19166 19170 28
15337 19171 19172 28
15338 19171 19173 28
15339 19171 19174 28
15340 19171 19175 28
15341 19176 19177 28
15342 19176 19178 28
15343 19176 19179 28
15344 19176 19180 28
15345 19181 19182 28
15346 19181 19183 28
15347 19181 19184 28
15348 19181 19185 28
15349 19186 19187 28
15350 19186 19188 28
15351 19186 19189 28
15352 19186 19190 28
15353 19191 19192 28
15354 19191 19193 28
15355 19191 19194 28
15356 19191 19195 28
15357 19196 19197 28
15358 19196 19198 28
15359 19196 19199 28
15360 19196 19200 28
15361 19201 19202 28
15362 19201 19203 28
15363 19201 19204 28
15364 19201 19205 28
15365 19206 19207 28
15366 19206 19208 28
15367 19206 19209 28
15368 19206 19210 28
15369 19211 19212 28
15370 19211 19213 28
15371 19211 19214 28
15372 19211 19215 28
15373 19216 19217 28
15374 19216 19218 28
15375 19216 19219 28
15376 19216 19220 28
15377 19221 19222 28
15378 19221 19223 28
15379 19221 19224 28
15380 19221 19225 28
15381 19226 19227 28
15382 19226 19228 28
15383 19226 19229 28
15384 19226 19230 28
15385 19231 19232 28
15386 19231 19233 28
15387 19231 19234 28
15388 19231 19235 28
15389 19236 19237 28
15390 19236 19238 28
15391 19236 19239 28
15392 19236 19240 28
15393 19241 19242 28
15394 19241 19243 28
15395 19241 19244 28
15396 19241 19245 28
15397 19246 19247 28
15398 19246 19248 28
15399 19246 19249 28
15400 19246 19250 28
15401 19251 19252 28
15402 19251 19253 28
15403 19251 19254 28
15404 19251 19255 28
15405 19256 19257 28
15406 19256 19258 28
15407 19256 19259 28
15408 19256 19260 28
15409 19261 19262 28
15410 19261 19263 28
15411 19261 19264 28
15412 19261 19265 28
15413 19266 19267 28
15414 19266 19268 28
15415 19266 19269 28
15416 19266 19270 28
15417 19271 19272 28
15418 19271 19273 28
15419 19271 19274 28
15420 19271 19275 28
15421 19276 19277 28
15422 19276 19278 28
15423 19276 19279 28
15424 19276 19280 28
15425 19281 19282 28
15426 19281 19283 28
15427 19281 19284 28
15428 19281 19285 28
15429 19286 19287 28
15430 19286 19288 28
15431 19286 19289 28
15432 19286 19290 28
15433 19291 19292 28
15434 19291 19293 28
15435 19291 19294 28
15436 19291 19295 28
15437 19296 19297 28
15438 19296 19298 28
15439 19296 19299 28
15440 19296 19300 28
15441 19301 19302 28
15442 19301 19303 28
15443 19301 19304 28
15444 19301 19305 28
15445 19306 19307 28
15446 19306 19308 28
15447 19306 19309 28
15448 19306 19310 28
15449 19311 19312 28
15450 19311 19313 28
15451 19311 19314 28
15452 19311 19315 28
15453 19316 19317 28
15454 19316 19318 28
15455 19316 19319 28
15456 19316 19320 28
15457 19321 19322 28
15458 19321 19323 28
15459 19321 19324 28
15460 19321 19325 28
15461 19326 19327 28
15462 19326 19328 28
15463 19326 19329 28
15464 19326 19330 28
15465 19331 19332 28
15466 19331 19333 28
15467 19331 19334 28
15468 19331 19335 28
15469 19336 19337 28
15470 19336 19338 28
15471 19336 19339 28
15472 19336 19340 28
15473 19341 19342 28
15474 19341 19343 28
15475 19341 19344 28
15476 19341 19345 28
15477 19346 19347 28
15478 19346 19348 28
15479 19346 19349 28
15480 19346 19350 28
15481 19351 19352 28
15482 19351 19353 28
15483 19351 19354 28
15484 19351 19355 28
15485 19356 19357 28
15486 19356 19358 28
15487 19356 19359 28
15488 19356 19360 28
15489 19361 19362 28
15490 19361 19363 28
15491 19361 19364 28
15492 19361 19365 28
15493 19366 19367 28
15494 19366 19368 28
15495 19366 19369 28
15496 19366 19370 28
15497 19371 19372 28
15498 19371 19373 28
15499 19371 19374 28
15500 19371 19375 28
15501 19376 19377 28
15502 19376 19378 28
15503 19376 19379 28
15504 19376 19380 28
15505 19381 19382 28
15506 19381 19383 28
15507 19381 19384 28
15508 19381 19385 28
15509 19386 19387 28
15510 19386 19388 28
15511 19386 19389 28
15512 19386 19390 28
15513 19391 19392 28
15514 19391 19393 28
15515 19391 19394 28
15516 19391 19395 28
15517 19396 19397 28
15518 19396 19398 28
15519 19396 19399 28
15520 19396 19400 28
15521 19401 19402 28
15522 19401 19403 28
15523 19401 19404 28
15524 19401 19405 28
15525 19406 19407 28
15526 19406 19408 28
15527 19406 19409 28
15528 19406 19410 28
15529 19411 19412 28
15530 19411 19413 28
15531 19411 19414 28
15532 19411 19415 28
15533 19416 19417 28
15534 19416 19418 28
15535 19416 19419 28
15536 19416 19420 28
15537 19421 19422 28
15538 19421 19423 28
15539 19421 19424 28
15540 19421 19425 28
15541 19426 19427 28
15542 19426 19428 28
15543 19426 19429 28
15544 19426 19430 28
15545 19431 19432 28
15546 19431 19433 28
15547 19431 19434 28
15548 19431 19435 28
15549 19436 19437 28
15550 19436 19438 28
15551 19436 19439 28
15552 19436 19440 28
15553 19441 19442 28
15554 19441 19443 28
15555 19441 19444 28
15556 19441 19445 28
15557 19446 19447 28
15558 19446 19448 28
15559 19446 19449 28
15560 19446 19450 28
15561 19451 19452 28
15562 19451 19453 28
15563 19451 19454 28
15564 19451 19455 28
15565 19456 19457 28
15566 19456 19458 28
15567 19456 19459 28
15568 19456 19460 28
15569 19461 19462 28
15570 19461 19463 28
15571 19461 19464 28
15572 19461 19465 28
15573 19466 19467 28
15574 19466 19468 28
15575 19466 19469 28
15576 19466 19470 28
15577 19471 19472 28
15578 19471 19473 28
15579 19471 19474 28
15580 19471 19475 28
15581 19476 19477 28
15582 19476 19478 28
15583 19476 19479 28
15584 19476 19480 28
15585 19481 19482 28
15586 19481 19483 28
15587 19481 19484 28
15588 19481 19485 28
15589 19486 19487 28
15590 19486 19488 28
15591 19486 19489 28
15592 19486 19490 28
15593 19491 19492 28
15594 19491 19493 28
15595 19491 19494 28
15596 19491 19495 28
15597 19496 19497 28
15598 19496 19498 28
15599 19496 19499 28
15600 19496 19500 28
15601 19501 19502 28
15602 19501 19503 28
15603 19501 19504 28
15604 19501 19505 28
15605 19506 19507 28
15606 19506 19508 28
15607 19506 19509 28
15608 19506 19510 28
15609 19511 19512 28
15610 19511 19513 28
15611 19511 19514 28
15612 19511 19515 28
15613 19516 19517 28
15614 19516 19518 28
15615 19516 19519 28
15616 19516 19520 28
15617 19521 19522 28
15618 19521 19523 28
15619 19521 19524 28
15620 19521 19525 28
15621 19526 19527 28
15622 19526 19528 28
15623 19526 19529 28
15624 19526 19530 28
15625 19531 19532 28
15626 19531 19533 28
15627 19531 19534 28
15628 19531 19535 28
15629 19536 19537 28
15630 19536 19538 28
15631 19536 19539 28
15632 19536 19540 28
15633 19541 19542 28
15634 19541 19543 28
15635 19541 19544 28
15636 19541 19545 28
15637 19546 19547 28
15638 19546 19548 28
15639 19546 19549 28
15640 19546 19550 28
15641 19551 19552 28
15642 19551 19553 28
15643 19551 19554 28
15644 19551 19555 28
15645 19556 19557 28
15646 19556 19558 28
15647 19556 19559 28
15648 19556 19560 28
15649 19561 19562 28
15650 19561 19563 28
15651 19561 19564 28
15652 19561 19565 28
15653 19566 19567 28
15654 19566 19568 28
15655 19566 19569 28
15656 19566 19570 28
15657 19571 19572 28
15658 19571 19573 28
15659 19571 19574 28
15660 19571 19575 28
15661 19576 19577 28
15662 19576 19578 28
15663 19576 19579 28
15664 19576 19580 28
15665 19581 19582 28
15666 19581 19583 28
15667 19581 19584 28
15668 19581 19585 28
15669 19586 19587 28
15670 19586 19588 28
15671 19586 19589 28
15672 19586 19590 28
15673 19591 19592 28
15674 19591 19593 28
15675 19591 19594 28
15676 19591 19595 28
15677 19596 19597 28
15678 19596 19598 28
15679 19596 19599 28
15680 19596 19600 28
15681 19601 19602 28
15682 19601 19603 28
15683 19601 19604 28
15684 19601 19605 28
15685 19606 19607 28
15686 19606 19608 28
15687 19606 19609 28
15688 19606 19610 28
15689 19611 19612 28
15690 19611 19613 28
15691 19611 19614 28
15692 19611 19615 28
15693 19616 19617 28
15694 19616 19618 28
15695 19616 19619 28
15696 19616 19620 28
15697 19621 19622 28
15698 19621 19623 28
15699 19621 19624 28
15700 19621 19625 28
15701 19626 19627 28
15702 19626 19628 28
15703 19626 19629 28
15704 19626 19630 28
15705 19631 19632 28
15706 19631 19633 28
15707 19631 19634 28
15708 19631 19635 28
15709 19636 19637 28
15710 19636 19638 28
15711 19636 19639 28
15712 19636 19640 28
15713 19641 19642 28
15714 19641 19643 28
15715 19641 19644 28
15716 19641 19645 28
15717 19646 19647 28
15718 19646 19648 28
15719 19646 19649 28
15720 19646 19650 28
15721 19651 19652 28
15722 19651 19653 28
15723 19651 19654 28
15724 19651 19655 28
15725 19656 19657 28
15726 19656 19658 28
15727 19656 19659 28
15728 19656 19660 28
15729 19661 19662 28
15730 19661 19663 28
15731 19661 19664 28
15732 19661 19665 28
15733 19666 19667 28
15734 19666 19668 28
15735 19666 19669 28
15736 19666 19670 28
15737 19671 19672 28
15738 19671 19673 28
15739 19671 19674 28
15740 19671 19675 28
15741 19676 19677 28
15742 19676 19678 28
15743 19676 19679 28
15744 19676 19680 28
15745 19681 19682 28
15746 19681 19683 28
15747 19681 19684 28
15748 19681 19685 28
15749 19686 19687 28
15750 19686 19688 28
15751 19686 19689 28
15752 19686 19690 28
15753 19691 19692 28
15754 19691 19693 28
15755 19691 19694 28
15756 19691 19695 28
15757 19696 19697 28
15758 19696 19698 28
15759 19696 19699 28
15760 19696 19700 28
15761 19701 19702 28
15762 19701 19703 28
15763 19701 19704 28
15764 19701 19705 28
15765 19706 19707 28
15766 19706 19708 28
15767 19706 19709 28
15768 19706 19710 28
15769 19711 19712 28
15770 19711 19713 28
15771 19711 19714 28
15772 19711 19715 28
15773 19716 19717 28
15774 19716 19718 28
15775 19716 19719 28
15776 19716 19720 28
15777 19721 19722 28
15778 19721 19723 28
15779 19721 19724 28
15780 19721 19725 28
15781 19726 19727 28
15782 19726 19728 28
15783 19726 19729 28
15784 19726 19730 28
15785 19731 19732 28
15786 19731 19733 28
15787 19731 19734 28
15788 19731 19735 28
15789 19736 19737 28
15790 19736 19738 28
15791 19736 19739 28
15792 19736 19740 28
15793 19741 19742 28
15794 19741 19743 28
15795 19741 19744 28
15796 19741 19745 28
15797 19746 19747 28
15798 19746 19748 28
15799 19746 19749 28
15800 19746 19750 28
15801 19751 19752 28
15802 19751 19753 28
15803 19751 19754 28
15804 19751 19755 28
15805 19756 19757 28
15806 19756 19758 28
15807 19756 19759 28
15808 19756 19760 28
15809 19761 19762 28
15810 19761 19763 28
15811 19761 19764 28
15812 19761 19765 28
15813 19766 19767 28
15814 19766 19768 28
15815 19766 19769 28
15816 19766 19770 28
15817 19771 19772 28
15818 19771 19773 28
15819 19771 19774 28
15820 19771 19775 28
15821 19776 19777 28
15822 19776 19778 28
15823 19776 19779 28
15824 19776 19780 28
15825 19781 19782 28
15826 19781 19783 28
15827 19781 19784 28
15828 19781 19785 28
15829 19786 19787 28
15830 19786 19788 28
15831 19786 19789 28
15832 19786 19790 28
15833 19791 19792 28
15834 19791 19793 28
15835 19791 19794 28
15836 19791 19795 28
15837 19796 19797 28
15838 19796 19798 28
15839 19796 19799 28
15840 19796 19800 28
15841 19801 19802 28
15842 19801 19803 28
15843 19801 19804 28
15844 19801 19805 28
15845 19806 19807 28
15846 19806 19808 28
15847 19806 19809 28
15848 19806 19810 28
15849 19811 19812 28
15850 19811 19813 28
15851 19811 19814 28
15852 19811 19815 28
15853 19816 19817 28
15854 19816 19818 28
15855 19816 19819 28
15856 19816 19820 28
15857 19821 19822 28
15858 19821 19823 28
15859 19821 19824 28
15860 19821 19825 28
15861 19826 19827 28
15862 19826 19828 28
15863 19826 19829 28
15864 19826 19830 28
15865 19831 19832 28
15866 19831 19833 28
15867 19831 19834 28
15868 19831 19835 28
15869 19836 19837 28
15870 19836 19838 28
15871 19836 19839 28
15872 19836 19840 28
15873 19841 19842 28
15874 19841 19843 28
15875 19841 19844 28
15876 19841 19845 28
15877 19846 19847 28
15878 19846 19848 28
15879 19846 19849 28
15880 19846 19850 28
15881 19851 19852 28
15882 19851 19853 28
15883 19851 19854 28
15884 19851 19855 28
15885 19856 19857 28
15886 19856 19858 28
15887 19856 19859 28
15888 19856 19860 28
15889 19861 19862 28
15890 19861 19863 28
15891 19861 19864 28
15892 19861 19865 28
15893 19866 19867 28
15894 19866 19868 28
15895 19866 19869 28
15896 19866 19870 28
15897 19871 19872 28
15898 19871 19873 28
15899 19871 19874 28
15900 19871 19875 28
15901 19876 19877 28
15902 19876 19878 28
15903 19876 19879 28
15904 19876 19880 28
15905 19881 19882 28
15906 19881 19883 28
15907 19881 19884 28
15908 19881 19885 28
15909 19886 19887 28
15910 19886 19888 28
15911 19886 19889 28
15912 19886 19890 28
15913 19891 19892 28
15914 19891 19893 28
15915 19891 19894 28
15916 19891 19895 28
15917 19896 19897 28
15918 19896 19898 28
15919 19896 19899 28
15920 19896 19900 28
15921 19901 19902 28
15922 19901 19903 28
15923 19901 19904 28
15924 19901 19905 28
15925 19906 19907 28
15926 19906 19908 28
15927 19906 19909 28
15928 19906 19910 28
15929 19911 19912 28
15930 19911 19913 28
15931 19911 19914 28
15932 19911 19915 28
15933 19916 19917 28
15934 19916 19918 28
15935 19916 19919 28
15936 19916 19920 28
15937 19921 19922 28
15938 19921 19923 28
15939 19921 19924 28
15940 19921 19925 28
15941 19926 19927 28
15942 19926 19928 28
15943 19926 19929 28
15944 19926 19930 28
15945 19931 19932 28
15946 19931 19933 28
15947 19931 19934 28
15948 19931 19935 28
15949 19936 19937 28
15950 19936 19938 28
15951 19936 19939 28
15952 19936 19940 28
15953 19941 19942 28
15954 19941 19943 28
15955 19941 19944 28
15956 19941 19945 28
15957 19946 19947 28
15958 19946 19948 28
15959 19946 19949 28
15960 19946 19950 28
15961 19951 19952 28
15962 19951 19953 28
15963 19951 19954 28
15964 19951 19955 28
15965 19956 19957 28
15966 19956 19958 28
15967 19956 19959 28
15968 19956 19960 28
15969 19961 19962 28
15970 19961 19963 28
15971 19961 19964 28
15972 19961 19965 28
15973 19966 19967 28
15974 19966 19968 28
15975 19966 19969 28
15976 19966 19970 28
15977 19971 19972 28
15978 19971 19973 28
15979 19971 19974 28
15980 19971 19975 28
15981 19976 19977 28
15982 19976 19978 28
15983 19976 19979 28
15984 19976 19980 28
15985 19981 19982 28
15986 19981 19983 28
15987 19981 19984 28
15988 19981 19985 28
15989 19986 19987 28
15990 19986 19988 28
15991 19986 19989 28
15992 19986 19990 28
15993 19991 19992 28
15994 19991 19993 28
15995 19991 19994 28
15996 19991 19995 28
15997 19996 19997 28
15998 19996 19998 28
15999 19996 19999 28
16000 19996 20000 28
16001 20001 20002 28
16002 20001 20003 28
16003 20001 20004 28
16004 20001 20005 28
16005 20006 20007 28
16006 20006 20008 28
16007 20006 20009 28
16008 20006 20010 28
16009 20011 20012 28
16010 20011 20013 28
16011 20011 20014 28
16012 20011 20015 28
16013 20016 20017 28
16014 20016 20018 28
16015 20016 20019 28
16016 20016 20020 28
16017 20021 20022 28
16018 20021 20023 28
16019 20021 20024 28
16020 20021 20025 28
16021 20026 20027 28
16022 20026 20028 28
16023 20026 20029 28
16024 20026 20030 28
16025 20031 20032 28
16026 20031 20033 28
16027 20031 20034 28
16028 20031 20035 28
16029 20036 20037 28
16030 20036 20038 28
16031 20036 20039 28
16032 20036 20040 28
16033 20041 20042 28
16034 20041 20043 28
16035 20041 20044 28
16036 20041 20045 28
16037 20046 20047 28
16038 20046 20048 28
16039 20046 20049 28
16040 20046 20050 28
16041 20051 20052 28
16042 20051 20053 28
16043 20051 20054 28
16044 20051 20055 28
16045 20056 20057 28
16046 20056 20058 28
16047 20056 20059 28
16048 20056 20060 28
16049 20061 20062 28
16050 20061 20063 28
16051 20061 20064 28
16052 20061 20065 28
16053 20066 20067 28
16054 20066 20068 28
16055 20066 20069 28
16056 20066 20070 28
16057 20071 20072 28
16058 20071 20073 28
16059 20071 20074 28
16060 20071 20075 28
16061 20076 20077 28
16062 20076 20078 28
16063 20076 20079 28
16064 20076 20080 28
16065 20081 20082 28
16066 20081 20083 28
16067 20081 20084 28
16068 20081 20085 28
16069 20086 20087 28
16070 20086 20088 28
16071 20086 20089 28
16072 20086 20090 28
16073 20091 20092 28
16074 20091 20093 28
16075 20091 20094 28
16076 20091 20095 28
16077 20096 20097 28
16078 20096 20098 28
16079 20096 20099 28
16080 20096 20100 28
16081 20101 20102 28
16082 20101 20103 28
16083 20101 20104 28
16084 20101 20105 28
16085 20106 20107 28
16086 20106 20108 28
16087 20106 20109 28
16088 20106 20110 28
16089 20111 20112 28
16090 20111 20113 28
16091 20111 20114 28
16092 20111 20115 28
16093 20116 20117 28
16094 20116 20118 28
16095 20116 20119 28
16096 20116 20120 28
16097 20121 20122 28
16098 20121 20123 28
16099 20121 20124 28
16100 20121 20125 28
16101 20126 20127 28
16102 20126 20128 28
16103 20126 20129 28
16104 20126 20130 28
16105 20131 20132 28
16106 20131 20133 28
16107 20131 20134 28
16108 20131 20135 28
16109 20136 20137 28
16110 20136 20138 28
16111 20136 20139 28
16112 20136 20140 28
16113 20141 20142 28
16114 20141 20143 28
16115 20141 20144 28
16116 20141 20145 28
16117 20146 20147 28
16118 20146 20148 28
16119 20146 20149 28
16120 20146 20150 28
16121 20151 20152 28
16122 20151 20153 28
16123 20151 20154 28
16124 20151 20155 28
16125 20156 20157 28
16126 20156 20158 28
16127 20156 20159 28
16128 20156 20160 28
16129 20161 20162 28
16130 20161 20163 28
16131 20161 20164 28
16132 20161 20165 28
16133 20166 20167 28
16134 20166 20168 28
16135 20166 20169 28
16136 20166 20170 28
16137 20171 20172 28
16138 20171 20173 28
16139 20171 20174 28
16140 20171 20175 28
16141 20176 20177 28
16142 20176 20178 28
16143 20176 20179 28
16144 20176 20180 28
16145 20181 20182 28
16146 20181 20183 28
16147 20181 20184 28
16148 20181 20185 28
16149 20186 20187 28
16150 20186 20188 28
16151 20186 20189 28
16152 20186 20190 28
16153 20191 20192 28
16154 20191 20193 28
16155 20191 20194 28
16156 20191 20195 28
16157 20196 20197 28
16158 20196 20198 28
16159 20196 20199 28
16160 20196 20200 28
16161 20201 20202 28
16162 20201 20203 28
16163 20201 20204 28
16164 20201 20205 28
16165 20206 20207 28
16166 20206 20208 28
16167 20206 20209 28
16168 20206 20210 28
16169 20211 20212 28
16170 20211 20213 28
16171 20211 20214 28
16172 20211 20215 28
16173 20216 20217 28
16174 20216 20218 28
16175 20216 20219 28
16176 20216 20220 28
16177 20221 20222 28
16178 20221 20223 28
16179 20221 20224 28
16180 20221 20225 28
16181 20226 20227 28
16182 20226 20228 28
16183 20226 20229 28
16184 20226 20230 28
16185 20231 20232 28
16186 20231 20233 28
16187 20231 20234 28
16188 20231 20235 28
16189 20236 20237 28
16190 20236 20238 28
16191 20236 20239 28
16192 20236 20240 28
16193 20241 20242 28
16194 20241 20243 28
16195 20241 20244 28
16196 20241 20245 28
16197 20246 20247 28
16198 20246 20248 28
16199 20246 20249 28
16200 20246 20250 28
16201 20251 20252 28
16202 20251 20253 28
16203 20251 20254 28
16204 20251 20255 28
16205 20256 20257 28
16206 20256 20258 28
16207 20256 20259 28
16208 20256 20260 28
16209 20261 20262 28
16210 20261 20263 28
16211 20261 20264 28
16212 20261 20265 28
16213 20266 20267 28
16214 20266 20268 28
16215 20266 20269 28
16216 20266 20270 28
16217 20271 20272 28
16218 20271 20273 28
16219 20271 20274 28
16220 20271 20275 28
16221 20276 20277 28
16222 20276 20278 28
16223 20276 20279 28
16224 20276 20280 28
16225 20281 20282 28
16226 20281 20283 28
16227 20281 20284 28
16228 20281 20285 28
16229 20286 20287 28
16230 20286 20288 28
16231 20286 20289 28
16232 20286 20290 28
16233 20291 20292 28
16234 20291 20293 28
16235 20291 20294 28
16236 20291 20295 28
16237 20296 20297 28
16238 20296 20298 28
16239 20296 20299 28
16240 20296 20300 28
16241 20301 20302 28
16242 20301 20303 28
16243 20301 20304 28
16244 20301 20305 28
16245 20306 20307 28
16246 20306 20308 28
16247 20306 20309 28
16248 20306 20310 28
16249 20311 20312 28
16250 20311 20313 28
16251 20311 20314 28
16252 20311 20315 28
16253 20316 20317 28
16254 20316 20318 28
16255 20316 20319 28
16256 20316 20320 28
16257 20321 20322 28
16258 20321 20323 28
16259 20321 20324 28
16260 20321 20325 28
16261 20326 20327 28
16262 20326 20328 28
16263 20326 20329 28
16264 20326 20330 28
16265 20331 20332 28
16266 20331 20333 28
16267 20331 20334 28
16268 20331 20335 28
16269 20336 20337 28
16270 20336 20338 28
16271 20336 20339 28
16272 20336 20340 28
16273 20341 20342 28
16274 20341 20343 28
16275 20341 20344 28
16276 20341 20345 28
16277 20346 20347 28
16278 20346 20348 28
16279 20346 20349 28
16280 20346 20350 28
16281 20351 20352 28
16282 20351 20353 28
16283 20351 20354 28
16284 20351 20355 28
16285 20356 20357 28
16286 20356 20358 28
16287 20356 20359 28
16288 20356 20360 28
16289 20361 20362 28
16290 20361 20363 28
16291 20361 20364 28
16292 20361 20365 28
16293 20366 20367 28
16294 20366 20368 28
16295 20366 20369 28
16296 20366 20370 28
16297 20371 20372 28
16298 20371 20373 28
16299 20371 20374 28
16300 20371 20375 28
16301 20376 20377 28
16302 20376 20378 28
16303 20376 20379 28
16304 20376 20380 28
16305 20381 20382 28
16306 20381 20383 28
16307 20381 20384 28
16308 20381 20385 28
16309 20386 20387 28
16310 20386 20388 28
16311 20386 20389 28
16312 20386 20390 28
16313 20391 20392 28
16314 20391 20393 28
16315 20391 20394 28
16316 20391 20395 28
16317 20396 20397 28
16318 20396 20398 28
16319 20396 20399 28
16320 20396 20400 28
16321 20401 20402 28
16322 20401 20403 28
16323 20401 20404 28
16324 20401 20405 28
16325 20406 20407 28
16326 20406 20408 28
16327 20406 20409 28
16328 20406 20410 28
16329 20411 20412 28
16330 20411 20413 28
16331 20411 20414 28
16332 20411 20415 28
16333 20416 20417 28
16334 20416 20418 28
16335 20416 20419 28
16336 20416 20420 28
16337 20421 20422 28
16338 20421 20423 28
16339 20421 20424 28
16340 20421 20425 28
16341 20426 20427 28
16342 20426 20428 28
16343 20426 20429 28
16344 20426 20430 28
16345 20431 20432 28
16346 20431 20433 28
16347 20431 20434 28
16348 20431 20435 28
16349 20436 20437 28
16350 20436 20438 28
16351 20436 20439 28
16352 20436 20440 28
16353 20441 20442 28
16354 20441 20443 28
16355 20441 20444 28
16356 20441 20445 28
16357 20446 20447 28
16358 20446 20448 28
16359 20446 20449 28
16360 20446 20450 28
16361 20451 20452 28
16362 20451 20453 28
16363 20451 20454 28
16364 20451 20455 28
16365 20456 20457 28
16366 20456 20458 28
16367 20456 20459 28
16368 20456 20460 28
16369 20461 20462 28
16370 20461 20463 28
16371 20461 20464 28
16372 20461 20465 28
16373 20466 20467 28
16374 20466 20468 28
16375 20466 20469 28
16376 20466 20470 28
16377 20471 20472 28
16378 20471 20473 28
16379 20471 20474 28
16380 20471 20475 28
16381 20476 20477 28
16382 20476 20478 28
16383 20476 20479 28
16384 20476 20480 28
16385 20481 20482 28
16386 20481 20483 28
16387 20481 20484 28
16388 20481 20485 28
16389 20486 20487 28
16390 20486 20488 28
16391 20486 20489 28
16392 20486 20490 28
16393 20491 20492 28
16394 20491 20493 28
16395 20491 20494 28
16396 20491 20495 28
16397 20496 20497 28
16398 20496 20498 28
16399 20496 20499 28
16400 20496 20500 28
16401 20501 20502 28
16402 20501 20503 28
16403 20501 20504 28
16404 20501 20505 28
16405 20506 20507 28
16406 20506 20508 28
16407 20506 20509 28
16408 20506 20510 28
16409 20511 20512 28
16410 20511 20513 28
16411 20511 20514 28
16412 20511 20515 28
16413 20516 20517 28
16414 20516 20518 28
16415 20516 20519 28
16416 20516 20520 28
16417 20521 20522 28
16418 20521 20523 28
16419 20521 20524 28
16420 20521 20525 28
16421 20526 20527 28
16422 20526 20528 28
16423 20526 20529 28
16424 20526 20530 28
16425 20531 20532 28
16426 20531 20533 28
16427 20531 20534 28
16428 20531 20535 28
16429 20536 20537 28
16430 20536 20538 28
16431 20536 20539 28
16432 20536 20540 28
16433 20541 20542 28
16434 20541 20543 28
16435 20541 20544 28
16436 20541 20545 28
16437 20546 20547 28
16438 20546 20548 28
16439 20546 20549 28
16440 20546 20550 28
16441 20551 20552 28
16442 20551 20553 28
16443 20551 20554 28
16444 20551 20555 28
16445 20556 20557 28
16446 20556 20558 28
16447 20556 20559 28
16448 20556 20560 28
16449 20561 20562 28
16450 20561 20563 28
16451 20561 20564 28
16452 20561 20565 28
16453 20566 20567 28
16454 20566 20568 28
16455 20566 20569 28
16456 20566 20570 28
16457 20571 20572 28
16458 20571 20573 28
16459 20571 20574 28
16460 20571 20575 28
16461 20576 20577 28
16462 20576 20578 28
16463 20576 20579 28
16464 20576 20580 28
16465 20581 20582 28
16466 20581 20583 28
16467 20581 20584 28
16468 20581 20585 28
16469 20586 20587 28
16470 20586 20588 28
16471 20586 20589 28
16472 20586 20590 28
16473 20591 20592 28
16474 20591 20593 28
16475 20591 20594 28
16476 20591 20595 28
16477 20596 20597 28
16478 20596 20598 28
16479 20596 20599 28
16480 20596 20600 28
16481 20601 20602 28
16482 20601 20603 28
16483 20601 20604 28
16484 20601 20605 28
16485 20606 20607 28
16486 20606 20608 28
16487 20606 20609 28
16488 20606 20610 28
16489 20611 20612 28
16490 20611 20613 28
16491 20611 20614 28
16492 20611 20615 28
16493 20616 20617 28
16494 20616 20618 28
16495 20616 20619 28
16496 20616 20620 28
16497 20621 20622 28
16498 20621 20623 28
16499 20621 20624 28
16500 20621 20625 28
16501 20626 20627 28
16502 20626 20628 28
16503 20626 20629 28
16504 20626 20630 28
16505 20631 20632 28
16506 20631 20633 28
16507 20631 20634 28
16508 20631 20635 28
16509 20636 20637 28
16510 20636 20638 28
16511 20636 20639 28
16512 20636 20640 28
16513 20641 20642 28
16514 20641 20643 28
16515 20641 20644 28
16516 20641 20645 28
16517 20646 20647 28
16518 20646 20648 28
16519 20646 20649 28
16520 20646 20650 28
16521 20651 20652 28
16522 20651 20653 28
16523 20651 20654 28
16524 20651 20655 28
16525 20656 20657 28
16526 20656 20658 28
16527 20656 20659 28
16528 20656 20660 28
16529 20661 20662 28
16530 20661 20663 28
16531 20661 20664 28
16532 20661 20665 28
16533 20666 20667 28
16534 20666 20668 28
16535 20666 20669 28
16536 20666 20670 28
16537 20671 20672 28
16538 20671 20673 28
16539 20671 20674 28
16540 20671 20675 28
16541 20676 20677 28
16542 20676 20678 28
16543 20676 20679 28
16544 20676 20680 28
16545 20681 20682 28
16546 20681 20683 28
16547 20681 20684 28
16548 20681 20685 28
16549 20686 20687 28
16550 20686 20688 28
16551 20686 20689 28
16552 20686 20690 28
16553 20691 20692 28
16554 20691 20693 28
16555 20691 20694 28
16556 20691 20695 28
16557 20696 20697 28
16558 20696 20698 28
16559 20696 20699 28
16560 20696 20700 28
16561 20701 20702 28
16562 20701 20703 28
16563 20701 20704 28
16564 20701 20705 28
16565 20706 20707 28
16566 20706 20708 28
16567 20706 20709 28
16568 20706 20710 28
16569 20711 20712 28
16570 20711 20713 28
16571 20711 20714 28
16572 20711 20715 28
16573 20716 20717 28
16574 20716 20718 28
16575 20716 20719 28
16576 20716 20720 28
16577 20721 20722 28
16578 20721 20723 28
16579 20721 20724 28
16580 20721 20725 28
16581 20726 20727 28
16582 20726 20728 28
16583 20726 20729 28
16584 20726 20730 28
16585 20731 20732 28
16586 20731 20733 28
16587 20731 20734 28
16588 20731 20735 28
16589 20736 20737 28
16590 20736 20738 28
16591 20736 20739 28
16592 20736 20740 28
16593 20741 20742 28
16594 20741 20743 28
16595 20741 20744 28
16596 20741 20745 28
16597 20746 20747 28
16598 20746 20748 28
16599 20746 20749 28
16600 20746 20750 28
16601 20751 20752 28
16602 20751 20753 28
16603 20751 20754 28
16604 20751 20755 28
16605 20756 20757 28
16606 20756 20758 28
16607 20756 20759 28
16608 20756 20760 28
16609 20761 20762 28
16610 20761 20763 28
16611 20761 20764 28
16612 20761 20765 28
16613 20766 20767 28
16614 20766 20768 28
16615 20766 20769 28
16616 20766 20770 28
16617 20771 20772 28
16618 20771 20773 28
16619 20771 20774 28
16620 20771 20775 28
16621 20776 20777 28
16622 20776 20778 28
16623 20776 20779 28
16624 20776 20780 28
16625 20781 20782 28
16626 20781 20783 28
16627 20781 20784 28
16628 20781 20785 28
16629 20786 20787 28
16630 20786 20788 28
16631 20786 20789 28
16632 20786 20790 28
16633 20791 20792 28
16634 20791 20793 28
16635 20791 20794 28
16636 20791 20795 28
16637 20796 20797 28
16638 20796 20798 28
16639 20796 20799 28
16640 20796 20800 28
16641 20801 20802 28
16642 20801 20803 28
16643 20801 20804 28
16644 20801 20805 28
16645 20806 20807 28
16646 20806 20808 28
16647 20806 20809 28
16648 20806 20810 28
16649 20811 20812 28
16650 20811 20813 28
16651 20811 20814 28
16652 20811 20815 28
16653 20816 20817 28
16654 20816 20818 28
16655 20816 20819 28
16656 20816 20820 28
16657 20821 20822 28
16658 20821 20823 28
16659 20821 20824 28
16660 20821 20825 28
16661 20826 20827 28
16662 20826 20828 28
16663 20826 20829 28
16664 20826 20830 28
16665 20831 20832 28
16666 20831 20833 28
16667 20831 20834 28
16668 20831 20835 28
16669 20836 20837 28
16670 20836 20838 28
16671 20836 20839 28
16672 20836 20840 28
16673 20841 20842 28
16674 20841 20843 28
16675 20841 20844 28
16676 20841 20845 28
16677 20846 20847 28
16678 20846 20848 28
16679 20846 20849 28
16680 20846 20850 28
16681 20851 20852 28
16682 20851 20853 28
16683 20851 20854 28
16684 20851 20855 28
16685 20856 20857 28
16686 20856 20858 28
16687 20856 20859 28
16688 20856 20860 28
16689 20861 20862 28
16690 20861 20863 28
16691 20861 20864 28
16692 20861 20865 28
16693 20866 20867 28
16694 20866 20868 28
16695 20866 20869 28
16696 20866 20870 28
16697 20871 20872 28
16698 20871 20873 28
16699 20871 20874 28
16700 20871 20875 28
16701 20876 20877 28
16702 20876 20878 28
16703 20876 20879 28
16704 20876 20880 28
16705 20881 20882 28
16706 20881 20883 28
16707 20881 20884 28
16708 20881 20885 28
16709 20886 20887 28
16710 20886 20888 28
16711 20886 20889 28
16712 20886 20890 28
16713 20891 20892 28
16714 20891 20893 28
16715 20891 20894 28
16716 20891 20895 28
16717 20896 20897 28
16718 20896 20898 28
16719 20896 20899 28
16720 20896 20900 28
16721 20901 20902 28
16722 20901 20903 28
16723 20901 20904 28
16724 20901 20905 28
16725 20906 20907 28
16726 20906 20908 28
16727 20906 20909 28
16728 20906 20910 28
16729 20911 20912 28
16730 20911 20913 28
16731 20911 20914 28
16732 20911 20915 28
16733 20916 20917 28
16734 20916 20918 28
16735 20916 20919 28
16736 20916 20920 28
16737 20921 20922 28
16738 20921 20923 28
16739 20921 20924 28
16740 20921 20925 28
16741 20926 20927 28
16742 20926 20928 28
16743 20926 20929 28
16744 20926 20930 28
16745 20931 20932 28
16746 20931 20933 28
16747 20931 20934 28
16748 20931 20935 28
16749 20936 20937 28
16750 20936 20938 28
16751 20936 20939 28
16752 20936 20940 28
16753 20941 20942 28
16754 20941 20943 28
16755 20941 20944 28
16756 20941 20945 28
16757 20946 20947 28
16758 20946 20948 28
16759 20946 20949 28
16760 20946 20950 28
16761 20951 20952 28
16762 20951 20953 28
16763 20951 20954 28
16764 20951 20955 28
16765 20956 20957 28
16766 20956 20958 28
16767 20956 20959 28
16768 20956 20960 28
16769 20961 20962 28
16770 20961 20963 28
16771 20961 20964 28
16772 20961 20965 28
16773 20966 20967 28
16774 20966 20968 28
16775 20966 20969 28
16776 20966 20970 28
16777 20971 20972 28
16778 20971 20973 28
16779 20971 20974 28
16780 20971 20975 28
16781 20976 20977 28
16782 20976 20978 28
16783 20976 20979 28
16784 20976 20980 28
16785 20981 20982 28
16786 20981 20983 28
16787 20981 20984 28
16788 20981 20985 28
16789 20986 20987 28
16790 20986 20988 28
16791 20986 20989 28
16792 20986 20990 28
16793 20991 20992 28
16794 20991 20993 28
16795 20991 20994 28
16796 20991 20995 28
16797 20996 20997 28
16798 20996 20998 28
16799 20996 20999 28
16800 20996 21000 28
16801 21001 21002 28
16802 21001 21003 28
16803 21001 21004 28
16804 21001 21005 28
16805 21006 21007 28
16806 21006 21008 28
16807 21006 21009 28
16808 21006 21010 28
16809 21011 21012 28
16810 21011 21013 28
16811 21011 21014 28
16812 21011 21015 28
16813 21016 21017 28
16814 21016 21018 28
16815 21016 21019 28
16816 21016 21020 28
16817 21021 21022 28
16818 21021 21023 28
16819 21021 21024 28
16820 21021 21025 28
16821 21026 21027 28
16822 21026 21028 28
16823 21026 21029 28
16824 21026 21030 28
16825 21031 21032 28
16826 21031 21033 28
16827 21031 21034 28
16828 21031 21035 28
16829 21036 21037 28
16830 21036 21038 28
16831 21036 21039 28
16832 21036 21040 28
16833 21041 21042 28
16834 21041 21043 28
16835 21041 21044 28
16836 21041 21045 28
16837 21046 21047 28
16838 21046 21048 28
16839 21046 21049 28
16840 21046 21050 28
16841 21051 21052 28
16842 21051 21053 28
16843 21051 21054 28
16844 21051 21055 28
16845 21056 21057 28
16846 21056 21058 28
16847 21056 21059 28
16848 21056 21060 28
16849 21061 21062 28
16850 21061 21063 28
16851 21061 21064 28
16852 21061 21065 28
16853 21066 21067 28
16854 21066 21068 28
16855 21066 21069 28
16856 21066 21070 28
16857 21071 21072 28
16858 21071 21073 28
16859 21071 21074 28
16860 21071 21075 28
16861 21076 21077 28
16862 21076 21078 28
16863 21076 21079 28
16864 21076 21080 28
16865 21081 21082 28
16866 21081 21083 28
16867 21081 21084 28
16868 21081 21085 28
16869 21086 21087 28
16870 21086 21088 28
16871 21086 21089 28
16872 21086 21090 28
16873 21091 21092 28
16874 21091 21093 28
16875 21091 21094 28
16876 21091 21095 28
16877 21096 21097 28
16878 21096 21098 28
16879 21096 21099 28
16880 21096 21100 28
16881 21101 21102 28
16882 21101 21103 28
16883 21101 21104 28
16884 21101 21105 28
16885 21106 21107 28
16886 21106 21108 28
16887 21106 21109 28
16888 21106 21110 28
16889 21111 21112 28
16890 21111 21113 28
16891 21111 21114 28
16892 21111 21115 28
16893 21116 21117 28
16894 21116 21118 28
16895 21116 21119 28
16896 21116 21120 28
16897 21121 21122 28
16898 21121 21123 28
16899 21121 21124 28
16900 21121 21125 28
16901 21126 21127 28
16902 21126 21128 28
16903 21126 21129 28
16904 21126 21130 28
16905 21131 21132 28
16906 21131 21133 28
16907 21131 21134 28
16908 21131 21135 28
16909 21136 21137 28
16910 21136 21138 28
16911 21136 21139 28
16912 21136 21140 28
16913 21141 21142 28
16914 21141 21143 28
16915 21141 21144 28
16916 21141 21145 28
16917 21146 21147 28
16918 21146 21148 28
16919 21146 21149 28
16920 21146 21150 28
16921 21151 21152 28
16922 21151 21153 28
16923 21151 21154 28
16924 21151 21155 28
16925 21156 21157 28
16926 21156 21158 28
16927 21156 21159 28
16928 21156 21160 28
16929 21161 21162 28
16930 21161 21163 28
16931 21161 21164 28
16932 21161 21165 28
16933 21166 21167 28
16934 21166 21168 28
16935 21166 21169 28
16936 21166 21170 28
16937 21171 21172 28
16938 21171 21173 28
16939 21171 21174 28
16940 21171 21175 28
16941 21176 21177 28
16942 21176 21178 28
16943 21176 21179 28
16944 21176 21180 28
16945 21181 21182 28
16946 21181 21183 28
16947 21181 21184 28
16948 21181 21185 28
16949 21186 21187 28
16950 21186 21188 28
16951 21186 21189 28
16952 21186 21190 28
16953 21191 21192 28
16954 21191 21193 28
16955 21191 21194 28
16956 21191 21195 28
16957 21196 21197 28
16958 21196 21198 28
16959 21196 21199 28
16960 21196 21200 28
16961 21201 21202 28
16962 21201 21203 28
16963 21201 21204 28
16964 21201 21205 28
16965 21206 21207 28
16966 21206 21208 28
16967 21206 21209 28
16968 21206 21210 28
16969 21211 21212 28
16970 21211 21213 28
16971 21211 21214 28
16972 21211 21215 28
16973 21216 21217 28
16974 21216 21218 28
16975 21216 21219 28
16976 21216 21220 28
16977 21221 21222 28
16978 21221 21223 28
16979 21221 21224 28
16980 21221 21225 28
16981 21226 21227 28
16982 21226 21228 28
16983 21226 21229 28
16984 21226 21230 28
16985 21231 21232 28
16986 21231 21233 28
16987 21231 21234 28
16988 21231 21235 28
16989 21236 21237 28
16990 21236 21238 28
16991 21236 21239 28
16992 21236 21240 28
16993 21241 21242 28
16994 21241 21243 28
16995 21241 21244 28
16996 21241 21245 28
16997 21246 21247 28
16998 21246 21248 28
16999 21246 21249 28
17000 21246 21250 28
17001 21251 21252 28
17002 21251 21253 28
17003 21251 21254 28
17004 21251 21255 28
17005 21256 21257 28
17006 21256 21258 28
17007 21256 21259 28
17008 21256 21260 28
17009 21261 21262 28
17010 21261 21263 28
17011 21261 21264 28
17012 21261 21265 28
17013 21266 21267 28
17014 21266 21268 28
17015 21266 21269 28
17016 21266 21270 28
17017 21271 21272 28
17018 21271 21273 28
17019 21271 21274 28
17020 21271 21275 28
17021 21276 21277 28
17022 21276 21278 28
17023 21276 21279 28
17024 21276 21280 28
17025 21281 21282 28
17026 21281 21283 28
17027 21281 21284 28
17028 21281 21285 28
17029 21286 21287 28
17030 21286 21288 28
17031 21286 21289 28
17032 21286 21290 28
17033 21291 21292 28
17034 21291 21293 28
17035 21291 21294 28
17036 21291 21295 28
17037 21296 21297 28
17038 21296 21298 28
17039 21296 21299 28
17040 21296 21300 28
17041 21301 21302 28
17042 21301 21303 28
17043 21301 21304 28
17044 21301 21305 28
17045 21306 21307 28
17046 21306 21308 28
17047 21306 21309 28
17048 21306 21310 28
17049 21311 21312 28
17050 21311 21313 28
17051 21311 21314 28
17052 21311 21315 28
17053 21316 21317 28
17054 21316 21318 28
17055 21316 21319 28
17056 21316 21320 28
17057 21321 21322 28
17058 21321 21323 28
17059 21321 21324 28
17060 21321 21325 28
17061 21326 21327 28
17062 21326 21328 28
17063 21326 21329 28
17064 21326 21330 28
17065 21331 21332 28
17066 21331 21333 28
17067 21331 21334 28
17068 21331 21335 28
17069 21336 21337 28
17070 21336 21338 28
17071 21336 21339 28
17072 21336 21340 28
17073 21341 21342 28
17074 21341 21343 28
17075 21341 21344 28
17076 21341 21345 28
17077 21346 21347 28
17078 21346 21348 28
17079 21346 21349 28
17080 21346 21350 28
17081 21351 21352 28
17082 21351 21353 28
17083 21351 21354 28
17084 21351 21355 28
17085 21356 21357 28
17086 21356 21358 28
17087 21356 21359 28
17088 21356 21360 28
17089 21361 21362 28
17090 21361 21363 28
17091 21361 21364 28
17092 21361 21365 28
17093 21366 21367 28
17094 21366 21368 28
17095 21366 21369 28
17096 21366 21370 28
17097 21371 21372 28
17098 21371 21373 28
17099 21371 21374 28
17100 21371 21375 28
17101 21376 21377 28
17102 21376 21378 28
17103 21376 21379 28
17104 21376 21380 28
17105 21381 21382 28
17106 21381 21383 28
17107 21381 21384 28
17108 21381 21385 28
17109 21386 21387 28
17110 21386 21388 28
17111 21386 21389 28
17112 21386 21390 28
17113 21391 21392 28
17114 21391 21393 28
17115 21391 21394 28
17116 21391 21395 28
17117 21396 21397 28
17118 21396 21398 28
17119 21396 21399 28
17120 21396 21400 28
17121 21401 21402 28
17122 21401 21403 28
17123 21401 21404 28
17124 21401 21405 28
17125 21406 21407 28
17126 21406 21408 28
17127 21406 21409 28
17128 21406 21410 28
17129 21411 21412 28
17130 21411 21413 28
17131 21411 21414 28
17132 21411 21415 28
17133 21416 21417 28
17134 21416 21418 28
17135 21416 21419 28
17136 21416 21420 28
17137 21421 21422 28
17138 21421 21423 28
17139 21421 21424 28
17140 21421 21425 28
17141 21426 21427 28
17142 21426 21428 28
17143 21426 21429 28
17144 21426 21430 28
17145 21431 21432 28
17146 21431 21433 28
17147 21431 21434 28
17148 21431 21435 28
17149 21436 21437 28
17150 21436 21438 28
17151 21436 21439 28
17152 21436 21440 28
17153 21441 21442 28
17154 21441 21443 28
17155 21441 21444 28
17156 21441 21445 28
17157 21446 21447 28
17158 21446 21448 28
17159 21446 21449 28
17160 21446 21450 28
17161 21451 21452 28
17162 21451 21453 28
17163 21451 21454 28
17164 21451 21455 28
17165 21456 21457 28
17166 21456 21458 28
17167 21456 21459 28
17168 21456 21460 28
17169 21461 21462 28
17170 21461 21463 28
17171 21461 21464 28
17172 21461 21465 28
17173 21466 21467 28
17174 21466 21468 28
17175 21466 21469 28
17176 21466 21470 28
17177 21471 21472 28
17178 21471 21473 28
17179 21471 21474 28
17180 21471 21475 28
17181 21476 21477 28
17182 21476 21478 28
17183 21476 21479 28
17184 21476 21480 28
17185 21481 21482 28
17186 21481 21483 28
17187 21481 21484 28
17188 21481 21485 28
17189 21486 21487 28
17190 21486 21488 28
17191 21486 21489 28
17192 21486 21490 28
17193 21491 21492 28
17194 21491 21493 28
17195 21491 21494 28
17196 21491 21495 28
17197 21496 21497 28
17198 21496 21498 28
17199 21496 21499 28
17200 21496 21500 28
17201 21501 21502 28
17202 21501 21503 28
17203 21501 21504 28
17204 21501 21505 28
17205 21506 21507 28
17206 21506 21508 28
17207 21506 21509 28
17208 21506 21510 28
17209 21511 21512 28
17210 21511 21513 28
17211 21511 21514 28
17212 21511 21515 28
17213 21516 21517 28
17214 21516 21518 28
17215 21516 21519 28
17216 21516 21520 28
17217 21521 21522 28
17218 21521 21523 28
17219 21521 21524 28
17220 21521 21525 28
17221 21526 21527 28
17222 21526 21528 28
17223 21526 21529 28
17224 21526 21530 28
17225 21531 21532 28
17226 21531 21533 28
17227 21531 21534 28
17228 21531 21535 28
17229 21536 21537 28
17230 21536 21538 28
17231 21536 21539 28
17232 21536 21540 28
17233 21541 21542 28
17234 21541 21543 28
17235 21541 21544 28
17236 21541 21545 28
17237 21546 21547 28
17238 21546 21548 28
17239 21546 21549 28
17240 21546 21550 28
17241 21551 21552 28
17242 21551 21553 28
17243 21551 21554 28
17244 21551 21555 28
17245 21556 21557 28
17246 21556 21558 28
17247 21556 21559 28
17248 21556 21560 28
17249 21561 21562 28
17250 21561 21563 28
17251 21561 21564 28
17252 21561 21565 28
17253 21566 21567 28
17254 21566 21568 28
17255 21566 21569 28
17256 21566 21570 28
17257 21571 21572 28
17258 21571 21573 28
17259 21571 21574 28
17260 21571 21575 28
17261 21576 21577 28
17262 21576 21578 28
17263 21576 21579 28
17264 21576 21580 28
17265 21581 21582 28
17266 21581 21583 28
17267 21581 21584 28
17268 21581 21585 28
17269 21586 21587 28
17270 21586 21588 28
17271 21586 21589 28
17272 21586 21590 28
17273 21591 21592 28
17274 21591 21593 28
17275 21591 21594 28
17276 21591 21595 28
17277 21596 21597 28
17278 21596 21598 28
17279 21596 21599 28
17280 21596 21600 28
17281 21601 21602 28
17282 21601 21603 28
17283 21601 21604 28
17284 21601 21605 28
17285 21606 21607 28
17286 21606 21608 28
17287 21606 21609 28
17288 21606 21610 28
17289 21611 21612 28
17290 21611 21613 28
17291 21611 21614 28
17292 21611 21615 28
17293 21616 21617 28
17294 21616 21618 28
17295 21616 21619 28
17296 21616 21620 28
17297 21621 21622 28
17298 21621 21623 28
17299 21621 21624 28
17300 21621 21625 28
17301 21626 21627 28
17302 21626 21628 28
17303 21626 21629 28
17304 21626 21630 28
17305 21631 21632 28
17306 21631 21633 28
17307 21631 21634 28
17308 21631 21635 28
17309 21636 21637 28
17310 21636 21638 28
17311 21636 21639 28
17312 21636 21640 28
17313 21641 21642 28
17314 21641 21643 28
17315 21641 21644 28
17316 21641 21645 28
17317 21646 21647 28
17318 21646 21648 28
17319 21646 21649 28
17320 21646 21650 28
17321 21651 21652 28
17322 21651 21653 28
17323 21651 21654 28
17324 21651 21655 28
17325 21656 21657 28
17326 21656 21658 28
17327 21656 21659 28
17328 21656 21660 28
17329 21661 21662 28
17330 21661 21663 28
17331 21661 21664 28
17332 21661 21665 28
17333 21666 21667 28
17334 21666 21668 28
17335 21666 21669 28
17336 21666 21670 28
17337 21671 21672 28
17338 21671 21673 28
17339 21671 21674 28
17340 21671 21675 28
17341 21676 21677 28
17342 21676 21678 28
17343 21676 21679 28
17344 21676 21680 28
17345 21681 21682 28
17346 21681 21683 28
17347 21681 21684 28
17348 21681 21685 28
17349 21686 21687 28
17350 21686 21688 28
17351 21686 21689 28
17352 21686 21690 28
17353 21691 21692 28
17354 21691 21693 28
17355 21691 21694 28
17356 21691 21695 28
17357 21696 21697 28
17358 21696 21698 28
17359 21696 21699 28
17360 21696 21700 28
17361 21701 21702 28
17362 21701 21703 28
17363 21701 21704 28
17364 21701 21705 28
17365 21706 21707 28
17366 21706 21708 28
17367 21706 21709 28
17368 21706 21710 28
17369 21711 21712 28
17370 21711 21713 28
17371 21711 21714 28
17372 21711 21715 28
17373 21716 21717 28
17374 21716 21718 28
17375 21716 21719 28
17376 21716 21720 28
17377 21721 21722 28
17378 21721 21723 28
17379 21721 21724 28
17380 21721 21725 28
17381 21726 21727 28
17382 21726 21728 28
17383 21726 21729 28
17384 21726 21730 28
17385 21731 21732 28
17386 21731 21733 28
17387 21731 21734 28
17388 21731 21735 28
17389 21736 21737 28
17390 21736 21738 28
17391 21736 21739 28
17392 21736 21740 28
17393 21741 21742 28
17394 21741 21743 28
17395 21741 21744 28
17396 21741 21745 28
17397 21746 21747 28
17398 21746 21748 28
17399 21746 21749 28
17400 21746 21750 28
17401 21751 21752 28
17402 21751 21753 28
17403 21751 21754 28
17404 21751 21755 28
17405 21756 21757 28
17406 21756 21758 28
17407 21756 21759 28
17408 21756 21760 28
17409 21761 21762 28
17410 21761 21763 28
17411 21761 21764 28
17412 21761 21765 28
17413 21766 21767 28
17414 21766 21768 28
17415 21766 21769 28
17416 21766 21770 28
17417 21771 21772 28
17418 21771 21773 28
17419 21771 21774 28
17420 21771 21775 28
17421 21776 21777 28
17422 21776 21778 28
17423 21776 21779 28
17424 21776 21780 28
17425 21781 21782 28
17426 21781 21783 28
17427 21781 21784 28
17428 21781 21785 28
17429 21786 21787 28
17430 21786 21788 28
17431 21786 21789 28
17432 21786 21790 28
17433 21791 21792 28
17434 21791 21793 28
17435 21791 21794 28
17436 21791 21795 28
17437 21796 21797 28
17438 21796 21798 28
17439 21796 21799 28
17440 21796 21800 28
17441 21801 21802 28
17442 21801 21803 28
17443 21801 21804 28
17444 21801 21805 28
17445 21806 21807 28
17446 21806 21808 28
17447 21806 21809 28
17448 21806 21810 28
17449 21811 21812 28
17450 21811 21813 28
17451 21811 21814 28
17452 21811 21815 28
17453 21816 21817 28
17454 21816 21818 28
17455 21816 21819 28
17456 21816 21820 28
17457 21821 21822 28
17458 21821 21823 28
17459 21821 21824 28
17460 21821 21825 28
17461 21826 21827 28
17462 21826 21828 28
17463 21826 21829 28
17464 21826 21830 28
17465 21831 21832 28
17466 21831 21833 28
17467 21831 21834 28
17468 21831 21835 28
17469 21836 21837 28
17470 21836 21838 28
17471 21836 21839 28
17472 21836 21840 28
17473 21841 21842 28
17474 21841 21843 28
17475 21841 21844 28
17476 21841 21845 28
17477 21846 21847 28
17478 21846 21848 28
17479 21846 21849 28
17480 21846 21850 28
17481 21851 21852 28
17482 21851 21853 28
17483 21851 21854 28
17484 21851 21855 28
17485 21856 21857 28
17486 21856 21858 28
17487 21856 21859 28
17488 21856 21860 28
17489 21861 21862 28
17490 21861 21863 28
17491 21861 21864 28
17492 21861 21865 28
17493 21866 21867 28
17494 21866 21868 28
17495 21866 21869 28
17496 21866 21870 28
17497 21871 21872 28
17498 21871 21873 28
17499 21871 21874 28
17500 21871 21875 28
17501 21876 21877 28
17502 21876 21878 28
17503 21876 21879 28
17504 21876 21880 28
17505 21881 21882 28
17506 21881 21883 28
17507 21881 21884 28
17508 21881 21885 28
17509 21886 21887 28
17510 21886 21888 28
17511 21886 21889 28
17512 21886 21890 28
17513 21891 21892 28
17514 21891 21893 28
17515 21891 21894 28
17516 21891 21895 28
17517 21896 21897 28
17518 21896 21898 28
17519 21896 21899 28
17520 21896 21900 28
17521 21901 21902 28
17522 21901 21903 28
17523 21901 21904 28
17524 21901 21905 28
17525 21906 21907 28
17526 21906 21908 28
17527 21906 21909 28
17528 21906 21910 28
17529 21911 21912 28
17530 21911 21913 28
17531 21911 21914 28
17532 21911 21915 28
17533 21916 21917 28
17534 21916 21918 28
17535 21916 21919 28
17536 21916 21920 28
17537 21921 21922 28
17538 21921 21923 28
17539 21921 21924 28
17540 21921 21925 28
17541 21926 21927 28
17542 21926 21928 28
17543 21926 21929 28
17544 21926 21930 28
17545 21931 21932 28
17546 21931 21933 28
17547 21931 21934 28
17548 21931 21935 28
17549 21936 21937 28
17550 21936 21938 28
17551 21936 21939 28
17552 21936 21940 28
17553 21941 21942 28
17554 21941 21943 28
17555 21941 21944 28
17556 21941 21945 28
17557 21946 21947 28
17558 21946 21948 28
17559 21946 21949 28
17560 21946 21950 28
17561 21951 21952 28
17562 21951 21953 28
17563 21951 21954 28
17564 21951 21955 28
17565 21956 21957 28
17566 21956 21958 28
17567 21956 21959 28
17568 21956 21960 28
17569 21961 21962 28
17570 21961 21963 28
17571 21961 21964 28
17572 21961 21965 28
17573 21966 21967 28
17574 21966 21968 28
17575 21966 21969 28
17576 21966 21970 28
17577 21971 21972 28
17578 21971 21973 28
17579 21971 21974 28
17580 21971 21975 28
17581 21976 21977 28
17582 21976 21978 28
17583 21976 21979 28
17584 21976 21980 28
17585 21981 21982 28
17586 21981 21983 28
17587 21981 21984 28
17588 21981 21985 28
17589 21986 21987 28
17590 21986 21988 28
17591 21986 21989 28
17592 21986 21990 28
17593 21991 21992 28
17594 21991 21993 28
17595 21991 21994 28
17596 21991 21995 28
17597 21996 21997 28
17598 21996 21998 28
17599 21996 21999 28
17600 21996 22000 28
17601 22001 22002 28
17602 22001 22003 28
17603 22001 22004 28
17604 22001 22005 28
17605 22006 22007 28
17606 22006 22008 28
17607 22006 22009 28
17608 22006 22010 28
17609 22011 22012 28
17610 22011 22013 28
17611 22011 22014 28
17612 22011 22015 28
17613 22016 22017 28
17614 22016 22018 28
17615 22016 22019 28
17616 22016 22020 28
17617 22021 22022 28
17618 22021 22023 28
17619 22021 22024 28
17620 22021 22025 28
17621 22026 22027 28
17622 22026 22028 28
17623 22026 22029 28
17624 22026 22030 28
17625 22031 22032 28
17626 22031 22033 28
17627 22031 22034 28
17628 22031 22035 28
17629 22036 22037 28
17630 22036 22038 28
17631 22036 22039 28
17632 22036 22040 28
17633 22041 22042 28
17634 22041 22043 28
17635 22041 22044 28
17636 22041 22045 28
17637 22046 22047 28
17638 22046 22048 28
17639 22046 22049 28
17640 22046 22050 28
17641 22051 22052 28
17642 22051 22053 28
17643 22051 22054 28
17644 22051 22055 28
17645 22056 22057 28
17646 22056 22058 28
17647 22056 22059 28
17648 22056 22060 28
17649 22061 22062 28
17650 22061 22063 28
17651 22061 22064 28
17652 22061 22065 28
17653 22066 22067 28
17654 22066 22068 28
17655 22066 22069 28
17656 22066 22070 28
17657 22071 22072 28
17658 22071 22073 28
17659 22071 22074 28
17660 22071 22075 28
17661 22076 22077 28
17662 22076 22078 28
17663 22076 22079 28
17664 22076 22080 28
17665 22081 22082 28
17666 22081 22083 28
17667 22081 22084 28
17668 22081 22085 28
17669 22086 22087 28
17670 22086 22088 28
17671 22086 22089 28
17672 22086 22090 28
17673 22091 22092 28
17674 22091 22093 28
17675 22091 22094 28
17676 22091 22095 28
17677 22096 22097 28
17678 22096 22098 28
17679 22096 22099 28
17680 22096 22100 28
17681 22101 22102 28
17682 22101 22103 28
17683 22101 22104 28
17684 22101 22105 28
17685 22106 22107 28
17686 22106 22108 28
17687 22106 22109 28
17688 22106 22110 28
17689 22111 22112 28
17690 22111 22113 28
17691 22111 22114 28
17692 22111 22115 28
17693 22116 22117 28
17694 22116 22118 28
17695 22116 22119 28
17696 22116 22120 28
17697 22121 22122 28
17698 22121 22123 28
17699 22121 22124 28
17700 22121 22125 28
17701 22126 22127 28
17702 22126 22128 28
17703 22126 22129 28
17704 22126 22130 28
17705 22131 22132 28
17706 22131 22133 28
17707 22131 22134 28
17708 22131 22135 28
17709 22136 22137 28
17710 22136 22138 28
17711 22136 22139 28
17712 22136 22140 28
17713 22141 22142 28
17714 22141 22143 28
17715 22141 22144 28
17716 22141 22145 28
17717 22146 22147 28
17718 22146 22148 28
17719 22146 22149 28
17720 22146 22150 28
17721 22151 22152 28
17722 22151 22153 28
17723 22151 22154 28
17724 22151 22155 28
17725 22156 22157 28
17726 22156 22158 28
17727 22156 22159 28
17728 22156 22160 28
17729 22161 22162 28
17730 22161 22163 28
17731 22161 22164 28
17732 22161 22165 28
17733 22166 22167 28
17734 22166 22168 28
17735 22166 22169 28
17736 22166 22170 28
17737 22171 22172 28
17738 22171 22173 28
17739 22171 22174 28
17740 22171 22175 28
17741 22176 22177 28
17742 22176 22178 28
17743 22176 22179 28
17744 22176 22180 28
17745 22181 22182 28
17746 22181 22183 28
17747 22181 22184 28
17748 22181 22185 28
17749 22186 22187 28
17750 22186 22188 28
17751 22186 22189 28
17752 22186 22190 28
17753 22191 22192 28
17754 22191 22193 28
17755 22191 22194 28
17756 22191 22195 28
17757 22196 22197 28
17758 22196 22198 28
17759 22196 22199 28
17760 22196 22200 28
17761 22201 22202 28
17762 22201 22203 28
17763 22201 22204 28
17764 22201 22205 28
17765 22206 22207 28
17766 22206 22208 28
17767 22206 22209 28
17768 22206 22210 28
17769 22211 22212 28
17770 22211 22213 28
17771 22211 22214 28
17772 22211 22215 28
17773 22216 22217 28
17774 22216 22218 28
17775 22216 22219 28
17776 22216 22220 28
17777 22221 22222 28
17778 22221 22223 28
17779 22221 22224 28
17780 22221 22225 28
17781 22226 22227 28
17782 22226 22228 28
17783 22226 22229 28
17784 22226 22230 28
17785 22231 22232 28
17786 22231 22233 28
17787 22231 22234 28
17788 22231 22235 28
17789 22236 22237 28
17790 22236 22238 28
17791 22236 22239 28
17792 22236 22240 28
17793 22241 22242 28
17794 22241 22243 28
17795 22241 22244 28
17796 22241 22245 28
17797 22246 22247 28
17798 22246 22248 28
17799 22246 22249 28
17800 22246 22250 28
17801 22251 22252 28
17802 22251 22253 28
17803 22251 22254 28
17804 22251 22255 28
17805 22256 22257 28
17806 22256 22258 28
17807 22256 22259 28
17808 22256 22260 28
17809 22261 22262 28
17810 22261 22263 28
17811 22261 22264 28
17812 22261 22265 28
17813 22266 22267 28
17814 22266 22268 28
17815 22266 22269 28
17816 22266 22270 28
17817 22271 22272 28
17818 22271 22273 28
17819 22271 22274 28
17820 22271 22275 28
17821 22276 22277 28
17822 22276 22278 28
17823 22276 22279 28
17824 22276 22280 28
17825 22281 22282 28
17826 22281 22283 28
17827 22281 22284 28
17828 22281 22285 28
17829 22286 22287 28
17830 22286 22288 28
17831 22286 22289 28
17832 22286 22290 28
17833 22291 22292 28
17834 22291 22293 28
17835 22291 22294 28
17836 22291 22295 28
17837 22296 22297 28
17838 22296 22298 28
17839 22296 22299 28
17840 22296 22300 28
17841 22301 22302 28
17842 22301 22303 28
17843 22301 22304 28
17844 22301 22305 28
17845 22306 22307 28
17846 22306 22308 28
17847 22306 22309 28
17848 22306 22310 28
17849 22311 22312 28
17850 22311 22313 28
17851 22311 22314 28
17852 22311 22315 28
17853 22316 22317 28
17854 22316 22318 28
17855 22316 22319 28
17856 22316 22320 28
17857 22321 22322 28
17858 22321 22323 28
17859 22321 22324 28
17860 22321 22325 28
17861 22326 22327 28
17862 22326 22328 28
17863 22326 22329 28
17864 22326 22330 28
17865 22331 22332 28
17866 22331 22333 28
17867 22331 22334 28
17868 22331 22335 28
17869 22336 22337 28
17870 22336 22338 28
17871 22336 22339 28
17872 22336 22340 28
17873 22341 22342 28
17874 22341 22343 28
17875 22341 22344 28
17876 22341 22345 28
17877 22346 22347 28
17878 22346 22348 28
17879 22346 22349 28
17880 22346 22350 28
17881 22351 22352 28
17882 22351 22353 28
17883 22351 22354 28
17884 22351 22355 28
17885 22356 22357 28
17886 22356 22358 28
17887 22356 22359 28
17888 22356 22360 28
17889 22361 22362 28
17890 22361 22363 28
17891 22361 22364 28
17892 22361 22365 28
17893 22366 22367 28
17894 22366 22368 28
17895 22366 22369 28
17896 22366 22370 28
17897 22371 22372 28
17898 22371 22373 28
17899 22371 22374 28
17900 22371 22375 28
17901 22376 22377 28
17902 22376 22378 28
17903 22376 22379 28
17904 22376 22380 28
17905 22381 22382 28
17906 22381 22383 28
17907 22381 22384 28
17908 22381 22385 28
17909 22386 22387 28
17910 22386 22388 28
17911 22386 22389 28
17912 22386 22390 28
17913 22391 22392 28
17914 22391 22393 28
17915 22391 22394 28
17916 22391 22395 28
17917 22396 22397 28
17918 22396 22398 28
17919 22396 22399 28
17920 22396 22400 28
17921 22401 22402 28
17922 22401 22403 28
17923 22401 22404 28
17924 22401 22405 28
17925 22406 22407 28
17926 22406 22408 28
17927 22406 22409 28
17928 22406 22410 28
17929 22411 22412 28
17930 22411 22413 28
17931 22411 22414 28
17932 22411 22415 28
17933 22416 22417 28
17934 22416 22418 28
17935 22416 22419 28
17936 22416 22420 28
17937 22421 22422 28
17938 22421 22423 28
17939 22421 22424 28
17940 22421 22425 28
17941 22426 22427 28
17942 22426 22428 28
17943 22426 22429 28
17944 22426 22430 28
17945 22431 22432 28
17946 22431 22433 28
17947 22431 22434 28
17948 22431 22435 28
17949 22436 22437 28
17950 22436 22438 28
17951 22436 22439 28
17952 22436 22440 28
17953 22441 22442 28
17954 22441 22443 28
17955 22441 22444 28
17956 22441 22445 28
17957 22446 22447 28
17958 22446 22448 28
17959 22446 22449 28
17960 22446 22450 28
17961 22451 22452 28
17962 22451 22453 28
17963 22451 22454 28
17964 22451 22455 28
17965 22456 22457 28
17966 22456 22458 28
17967 22456 22459 28
17968 22456 22460 28
17969 22461 22462 28
17970 22461 22463 28
17971 22461 22464 28
17972 22461 22465 28
17973 22466 22467 28
17974 22466 22468 28
17975 22466 22469 28
17976 22466 22470 28
17977 22471 22472 28
17978 22471 22473 28
17979 22471 22474 28
17980 22471 22475 28
17981 22476 22477 28
17982 22476 22478 28
17983 22476 22479 28
17984 22476 22480 28
17985 22481 22482 28
17986 22481 22483 28
17987 22481 22484 28
17988 22481 22485 28
17989 22486 22487 28
17990 22486 22488 28
17991 22486 22489 28
17992 22486 22490 28
17993 22491 22492 28
17994 22491 22493 28
17995 22491 22494 28
17996 22491 22495 28
17997 22496 22497 28
17998 22496 22498 28
17999 22496 22499 28
18000 22496 22500 28
18001 22501 22502 28
18002 22501 22503 28
18003 22501 22504 28
18004 22501 22505 28
18005 22506 22507 28
18006 22506 22508 28
18007 22506 22509 28
18008 22506 22510 28
18009 22511 22512 28
18010 22511 22513 28
18011 22511 22514 28
18012 22511 22515 28
18013 22516 22517 28
18014 22516 22518 28
18015 22516 22519 28
18016 22516 22520 28
18017 22521 22522 28
18018 22521 22523 28
18019 22521 22524 28
18020 22521 22525 28
18021 22526 22527 28
18022 22526 22528 28
18023 22526 22529 28
18024 22526 22530 28
18025 22531 22532 28
18026 22531 22533 28
18027 22531 22534 28
18028 22531 22535 28
18029 22536 22537 28
18030 22536 22538 28
18031 22536 22539 28
18032 22536 22540 28
18033 22541 22542 28
18034 22541 22543 28
18035 22541 22544 28
18036 22541 22545 28
18037 22546 22547 28
18038 22546 22548 28
18039 22546 22549 28
18040 22546 22550 28
18041 22551 22552 28
18042 22551 22553 28
18043 22551 22554 28
18044 22551 22555 28
18045 22556 22557 28
18046 22556 22558 28
18047 22556 22559 28
18048 22556 22560 28
18049 22561 22562 28
18050 22561 22563 28
18051 22561 22564 28
18052 22561 22565 28
18053 22566 22567 28
18054 22566 22568 28
18055 22566 22569 28
18056 22566 22570 28
18057 22571 22572 28
18058 22571 22573 28
18059 22571 22574 28
18060 22571 22575 28
18061 22576 22577 28
18062 22576 22578 28
18063 22576 22579 28
18064 22576 22580 28
18065 22581 22582 28
18066 22581 22583 28
18067 22581 22584 28
18068 22581 22585 28
18069 22586 22587 28
18070 22586 22588 28
18071 22586 22589 28
18072 22586 22590 28
18073 22591 22592 28
18074 22591 22593 28
18075 22591 22594 28
18076 22591 22595 28
18077 22596 22597 28
18078 22596 22598 28
18079 22596 22599 28
18080 22596 22600 28
18081 22601 22602 28
18082 22601 22603 28
18083 22601 22604 28
18084 22601 22605 28
18085 22606 22607 28
18086 22606 22608 28
18087 22606 22609 28
18088 22606 22610 28
18089 22611 22612 28
18090 22611 22613 28
18091 22611 22614 28
18092 22611 22615 28
18093 22616 22617 28
18094 22616 22618 28
18095 22616 22619 28
18096 22616 22620 28
18097 22621 22622 28
18098 22621 22623 28
18099 22621 22624 28
18100 22621 22625 28
18101 22626 22627 28
18102 22626 22628 28
18103 22626 22629 28
18104 22626 22630 28
18105 22631 22632 28
18106 22631 22633 28
18107 22631 22634 28
18108 22631 22635 28
18109 22636 22637 28
18110 22636 22638 28
18111 22636 22639 28
18112 22636 22640 28
18113 22641 22642 28
18114 22641 22643 28
18115 22641 22644 28
18116 22641 22645 28
18117 22646 22647 28
18118 22646 22648 28
18119 22646 22649 28
18120 22646 22650 28
18121 22651 22652 28
18122 22651 22653 28
18123 22651 22654 28
18124 22651 22655 28
18125 22656 22657 28
18126 22656 22658 28
18127 22656 22659 28
18128 22656 22660 28
18129 22661 22662 28
18130 22661 22663 28
18131 22661 22664 28
18132 22661 22665 28
18133 22666 22667 28
18134 22666 22668 28
18135 22666 22669 28
18136 22666 22670 28
18137 22671 22672 28
18138 22671 22673 28
18139 22671 22674 28
18140 22671 22675 28
18141 22676 22677 28
18142 22676 22678 28
18143 22676 22679 28
18144 22676 22680 28
18145 22681 22682 28
18146 22681 22683 28
18147 22681 22684 28
18148 22681 22685 28
18149 22686 22687 28
18150 22686 22688 28
18151 22686 22689 28
18152 22686 22690 28
18153 22691 22692 28
18154 22691 22693 28
18155 22691 22694 28
18156 22691 22695 28
18157 22696 22697 28
18158 22696 22698 28
18159 22696 22699 28
18160 22696 22700 28
18161 22701 22702 28
18162 22701 22703 28
18163 22701 22704 28
18164 22701 22705 28
18165 22706 22707 28
18166 22706 22708 28
18167 22706 22709 28
18168 22706 22710 28
18169 22711 22712 28
18170 22711 22713 28
18171 22711 22714 28
18172 22711 22715 28
18173 22716 22717 28
18174 22716 22718 28
18175 22716 22719 28
18176 22716 22720 28
18177 22721 22722 28
18178 22721 22723 28
18179 22721 22724 28
18180 22721 22725 28
18181 22726 22727 28
18182 22726 22728 28
18183 22726 22729 28
18184 22726 22730 28
18185 22731 22732 28
18186 22731 22733 28
18187 22731 22734 28
18188 22731 22735 28
18189 22736 22737 28
18190 22736 22738 28
18191 22736 22739 28
18192 22736 22740 28
18193 22741 22742 28
18194 22741 22743 28
18195 22741 22744 28
18196 22741 22745 28
18197 22746 22747 28
18198 22746 22748 28
18199 22746 22749 28
18200 22746 22750 28
18201 22751 22752 28
18202 22751 22753 28
18203 22751 22754 28
18204 22751 22755 28
18205 22756 22757 28
18206 22756 22758 28
18207 22756 22759 28
18208 22756 22760 28
18209 22761 22762 28
18210 22761 22763 28
18211 22761 22764 28
18212 22761 22765 28
18213 22766 22767 28
18214 22766 22768 28
18215 22766 22769 28
18216 22766 22770 28
18217 22771 22772 28
18218 22771 22773 28
18219 22771 22774 28
18220 22771 22775 28
18221 22776 22777 28
18222 22776 22778 28
18223 22776 22779 28
18224 22776 22780 28
18225 22781 22782 28
18226 22781 22783 28
18227 22781 22784 28
18228 22781 22785 28
18229 22786 22787 28
18230 22786 22788 28
18231 22786 22789 28
18232 22786 22790 28
18233 22791 22792 28
18234 22791 22793 28
18235 22791 22794 28
18236 22791 22795 28
18237 22796 22797 28
18238 22796 22798 28
18239 22796 22799 28
18240 22796 22800 28
18241 22801 22802 28
18242 22801 22803 28
18243 22801 22804 28
18244 22801 22805 28
18245 22806 22807 28
18246 22806 22808 28
18247 22806 22809 28
18248 22806 22810 28
18249 22811 22812 28
18250 22811 22813 28
18251 22811 22814 28
18252 22811 22815 28
18253 22816 22817 28
18254 22816 22818 28
18255 22816 22819 28
18256 22816 22820 28
18257 22821 22822 28
18258 22821 22823 28
18259 22821 22824 28
18260 22821 22825 28
18261 22826 22827 28
18262 22826 22828 28
18263 22826 22829 28
18264 22826 22830 28
18265 22831 22832 28
18266 22831 22833 28
18267 22831 22834 28
18268 22831 22835 28
18269 22836 22837 28
18270 22836 22838 28
18271 22836 22839 28
18272 22836 22840 28
18273 22841 22842 28
18274 22841 22843 28
18275 22841 22844 28
18276 22841 22845 28
18277 22846 22847 28
18278 22846 22848 28
18279 22846 22849 28
18280 22846 22850 28
18281 22851 22852 28
18282 22851 22853 28
18283 22851 22854 28
18284 22851 22855 28
18285 22856 22857 28
18286 22856 22858 28
18287 22856 22859 28
18288 22856 22860 28
18289 22861 22862 28
18290 22861 22863 28
18291 22861 22864 28
18292 22861 22865 28
18293 22866 22867 28
18294 22866 22868 28
18295 22866 22869 28
18296 22866 22870 28
18297 22871 22872 28
18298 22871 22873 28
18299 22871 22874 28
18300 22871 22875 28
18301 22876 22877 28
18302 22876 22878 28
18303 22876 22879 28
18304 22876 22880 28
18305 22881 22882 28
18306 22881 22883 28
18307 22881 22884 28
18308 22881 22885 28
18309 22886 22887 28
18310 22886 22888 28
18311 22886 22889 28
18312 22886 22890 28
18313 22891 22892 28
18314 22891 22893 28
18315 22891 22894 28
18316 22891 22895 28
18317 22896 22897 28
18318 22896 22898 28
18319 22896 22899 28
18320 22896 22900 28
18321 22901 22902 28
18322 22901 22903 28
18323 22901 22904 28
18324 22901 22905 28
18325 22906 22907 28
18326 22906 22908 28
18327 22906 22909 28
18328 22906 22910 28
18329 22911 22912 28
18330 22911 22913 28
18331 22911 22914 28
18332 22911 22915 28
18333 22916 22917 28
18334 22916 22918 28
18335 22916 22919 28
18336 22916 22920 28
18337 22921 22922 28
18338 22921 22923 28
18339 22921 22924 28
18340 22921 22925 28
18341 22926 22927 28
18342 22926 22928 28
18343 22926 22929 28
18344 22926 22930 28
18345 22931 22932 28
18346 22931 22933 28
18347 22931 22934 28
18348 22931 22935 28
18349 22936 22937 28
18350 22936 22938 28
18351 22936 22939 28
18352 22936 22940 28
18353 22941 22942 28
18354 22941 22943 28
18355 22941 22944 28
18356 22941 22945 28
18357 22946 22947 28
18358 22946 22948 28
18359 22946 22949 28
18360 22946 22950 28
18361 22951 22952 28
18362 22951 22953 28
18363 22951 22954 28
18364 22951 22955 28
18365 22956 22957 28
18366 22956 22958 28
18367 22956 22959 28
18368 22956 22960 28
18369 22961 22962 28
18370 22961 22963 28
18371 22961 22964 28
18372 22961 22965 28
18373 22966 22967 28
18374 22966 22968 28
18375 22966 22969 28
18376 22966 22970 28
18377 22971 22972 28
18378 22971 22973 28
18379 22971 22974 28
18380 22971 22975 28
18381 22976 22977 28
18382 22976 22978 28
18383 22976 22979 28
18384 22976 22980 28
18385 22981 22982 28
18386 22981 22983 28
18387 22981 22984 28
18388 22981 22985 28
18389 22986 22987 28
18390 22986 22988 28
18391 22986 22989 28
18392 22986 22990 28
18393 22991 22992 28
18394 22991 22993 28
18395 22991 22994 28
18396 22991 22995 28
18397 22996 22997 28
18398 22996 22998 28
18399 22996 22999 28
18400 22996 23000 28
18401 23001 23002 28
18402 23001 23003 28
18403 23001 23004 28
18404 23001 23005 28
18405 23006 23007 28
18406 23006 23008 28
18407 23006 23009 28
18408 23006 23010 28
18409 23011 23012 28
18410 23011 23013 28
18411 23011 23014 28
18412 23011 23015 28
18413 23016 23017 28
18414 23016 23018 28
18415 23016 23019 28
18416 23016 23020 28
18417 23021 23022 28
18418 23021 23023 28
18419 23021 23024 28
18420 23021 23025 28
18421 23026 23027 28
18422 23026 23028 28
18423 23026 23029 28
18424 23026 23030 28
18425 23031 23032 28
18426 23031 23033 28
18427 23031 23034 28
18428 23031 23035 28
18429 23036 23037 28
18430 23036 23038 28
18431 23036 23039 28
18432 23036 23040 28
18433 23041 23042 28
18434 23041 23043 28
18435 23041 23044 28
18436 23041 23045 28
18437 23046 23047 28
18438 23046 23048 28
18439 23046 23049 28
18440 23046 23050 28
18441 23051 23052 28
18442 23051 23053 28
18443 23051 23054 28
18444 23051 23055 28
18445 23056 23057 28
18446 23056 23058 28
18447 23056 23059 28
18448 23056 23060 28
18449 23061 23062 28
18450 23061 23063 28
18451 23061 23064 28
18452 23061 23065 28
18453 23066 23067 28
18454 23066 23068 28
18455 23066 23069 28
18456 23066 23070 28
18457 23071 23072 28
18458 23071 23073 28
18459 23071 23074 28
18460 23071 23075 28
18461 23076 23077 28
18462 23076 23078 28
18463 23076 23079 28
18464 23076 23080 28
18465 23081 23082 28
18466 23081 23083 28
18467 23081 23084 28
18468 23081 23085 28
18469 23086 23087 28
18470 23086 23088 28
18471 23086 23089 28
18472 23086 23090 28
18473 23091 23092 28
18474 23091 23093 28
18475 23091 23094 28
18476 23091 23095 28
18477 23096 23097 28
18478 23096 23098 28
18479 23096 23099 28
18480 23096 23100 28
18481 23101 23102 28
18482 23101 23103 28
18483 23101 23104 28
18484 23101 23105 28
18485 23106 23107 28
18486 23106 23108 28
18487 23106 23109 28
18488 23106 23110 28
18489 23111 23112 28
18490 23111 23113 28
18491 23111 23114 28
18492 23111 23115 28
18493 23116 23117 28
18494 23116 23118 28
18495 23116 23119 28
18496 23116 23120 28
18497 23121 23122 28
18498 23121 23123 28
18499 23121 23124 28
18500 23121 23125 28
18501 23126 23127 28
18502 23126 23128 28
18503 23126 23129 28
18504 23126 23130 28
18505 23131 23132 28
18506 23131 23133 28
18507 23131 23134 28
18508 23131 23135 28
18509 23136 23137 28
18510 23136 23138 28
18511 23136 23139 28
18512 23136 23140 28
18513 23141 23142 28
18514 23141 23143 28
18515 23141 23144 28
18516 23141 23145 28
18517 23146 23147 28
18518 23146 23148 28
18519 23146 23149 28
18520 23146 23150 28
18521 23151 23152 28
18522 23151 23153 28
18523 23151 23154 28
18524 23151 23155 28
18525 23156 23157 28
18526 23156 23158 28
18527 23156 23159 28
18528 23156 23160 28
18529 23161 23162 28
18530 23161 23163 28
18531 23161 23164 28
18532 23161 23165 28
18533 23166 23167 28
18534 23166 23168 28
18535 23166 23169 28
18536 23166 23170 28
18537 23171 23172 28
18538 23171 23173 28
18539 23171 23174 28
18540 23171 23175 28
18541 23176 23177 28
18542 23176 23178 28
18543 23176 23179 28
18544 23176 23180 28
18545 23181 23182 28
18546 23181 23183 28
18547 23181 23184 28
18548 23181 23185 28
18549 23186 23187 28
18550 23186 23188 28
18551 23186 23189 28
18552 23186 23190 28
18553 23191 23192 28
18554 23191 23193 28
18555 23191 23194 28
18556 23191 23195 28
18557 23196 23197 28
18558 23196 23198 28
18559 23196 23199 28
18560 23196 23200 28
18561 23201 23202 28
18562 23201 23203 28
18563 23201 23204 28
18564 23201 23205 28
18565 23206 23207 28
18566 23206 23208 28
18567 23206 23209 28
18568 23206 23210 28
18569 23211 23212 28
18570 23211 23213 28
18571 23211 23214 28
18572 23211 23215 28
18573 23216 23217 28
18574 23216 23218 28
18575 23216 23219 28
18576 23216 23220 28
18577 23221 23222 28
18578 23221 23223 28
18579 23221 23224 28
18580 23221 23225 28
18581 23226 23227 28
18582 23226 23228 28
18583 23226 23229 28
18584 23226 23230 28
18585 23231 23232 28
18586 23231 23233 28
18587 23231 23234 28
18588 23231 23235 28
18589 23236 23237 28
18590 23236 23238 28
18591 23236 23239 28
18592 23236 23240 28
18593 23241 23242 28
18594 23241 23243 28
18595 23241 23244 28
18596 23241 23245 28
18597 23246 23247 28
18598 23246 23248 28
18599 23246 23249 28
18600 23246 23250 28
18601 23251 23252 28
18602 23251 23253 28
18603 23251 23254 28
18604 23251 23255 28
18605 23256 23257 28
18606 23256 23258 28
18607 23256 23259 28
18608 23256 23260 28
18609 23261 23262 28
18610 23261 23263 28
18611 23261 23264 28
18612 23261 23265 28
18613 23266 23267 28
18614 23266 23268 28
18615 23266 23269 28
18616 23266 23270 28
18617 23271 23272 28
18618 23271 23273 28
18619 23271 23274 28
18620 23271 23275 28
18621 23276 23277 28
18622 23276 23278 28
18623 23276 23279 28
18624 23276 23280 28
18625 23281 23282 28
18626 23281 23283 28
18627 23281 23284 28
18628 23281 23285 28
18629 23286 23287 28
18630 23286 23288 28
18631 23286 23289 28
18632 23286 23290 28
18633 23291 23292 28
18634 23291 23293 28
18635 23291 23294 28
18636 23291 23295 28
18637 23296 23297 28
18638 23296 23298 28
18639 23296 23299 28
18640 23296 23300 28
18641 23301 23302 28
18642 23301 23303 28
18643 23301 23304 28
18644 23301 23305 28
18645 23306 23307 28
18646 23306 23308 28
18647 23306 23309 28
18648 23306 23310 28
18649 23311 23312 28
18650 23311 23313 28
18651 23311 23314 28
18652 23311 23315 28
18653 23316 23317 28
18654 23316 23318 28
18655 23316 23319 28
18656 23316 23320 28
18657 23321 23322 28
18658 23321 23323 28
18659 23321 23324 28
18660 23321 23325 28
18661 23326 23327 28
18662 23326 23328 28
18663 23326 23329 28
18664 23326 23330 28
18665 23331 23332 28
18666 23331 23333 28
18667 23331 23334 28
18668 23331 23335 28
18669 23336 23337 28
18670 23336 23338 28
18671 23336 23339 28
18672 23336 23340 28
18673 23341 23342 28
18674 23341 23343 28
18675 23341 23344 28
18676 23341 23345 28
18677 23346 23347 28
18678 23346 23348 28
18679 23346 23349 28
18680 23346 23350 28
18681 23351 23352 28
18682 23351 23353 28
18683 23351 23354 28
18684 23351 23355 28
18685 23356 23357 28
18686 23356 23358 28
18687 23356 23359 28
18688 23356 23360 28
18689 23361 23362 28
18690 23361 23363 28
18691 23361 23364 28
18692 23361 23365 28
18693 23366 23367 28
18694 23366 23368 28
18695 23366 23369 28
18696 23366 23370 28
18697 23371 23372 28
18698 23371 23373 28
18699 23371 23374 28
18700 23371 23375 28
18701 23376 23377 28
18702 23376 23378 28
18703 23376 23379 28
18704 23376 23380 28
18705 23381 23382 28
18706 23381 23383 28
18707 23381 23384 28
18708 23381 23385 28
18709 23386 23387 28
18710 23386 23388 28
18711 23386 23389 28
18712 23386 23390 28
18713 23391 23392 28
18714 23391 23393 28
18715 23391 23394 28
18716 23391 23395 28
18717 23396 23397 28
18718 23396 23398 28
18719 23396 23399 28
18720 23396 23400 28
18721 23401 23402 28
18722 23401 23403 28
18723 23401 23404 28
18724 23401 23405 28
18725 23406 23407 28
18726 23406 23408 28
18727 23406 23409 28
18728 23406 23410 28
18729 23411 23412 28
18730 23411 23413 28
18731 23411 23414 28
18732 23411 23415 28
18733 23416 23417 28
18734 23416 23418 28
18735 23416 23419 28
18736 23416 23420 28
18737 23421 23422 28
18738 23421 23423 28
18739 23421 23424 28
18740 23421 23425 28
18741 23426 23427 28
18742 23426 23428 28
18743 23426 23429 28
18744 23426 23430 28
18745 23431 23432 28
18746 23431 23433 28
18747 23431 23434 28
18748 23431 23435 28
18749 23436 23437 28
18750 23436 23438 28
18751 23436 23439 28
18752 23436 23440 28
18753 23441 23442 28
18754 23441 23443 28
18755 23441 23444 28
18756 23441 23445 28
18757 23446 23447 28
18758 23446 23448 28
18759 23446 23449 28
18760 23446 23450 28
18761 23451 23452 28
18762 23451 23453 28
18763 23451 23454 28
18764 23451 23455 28
18765 23456 23457 28
18766 23456 23458 28
18767 23456 23459 28
18768 23456 23460 28
18769 23461 23462 28
18770 23461 23463 28
18771 23461 23464 28
18772 23461 23465 28
18773 23466 23467 28
18774 23466 23468 28
18775 23466 23469 28
18776 23466 23470 28
18777 23471 23472 28
18778 23471 23473 28
18779 23471 23474 28
18780 23471 23475 28
18781 23476 23477 28
18782 23476 23478 28
18783 23476 23479 28
18784 23476 23480 28
18785 23481 23482 28
18786 23481 23483 28
18787 23481 23484 28
18788 23481 23485 28
18789 23486 23487 28
18790 23486 23488 28
18791 23486 23489 28
18792 23486 23490 28
18793 23491 23492 28
18794 23491 23493 28
18795 23491 23494 28
18796 23491 23495 28
18797 23496 23497 28
18798 23496 23498 28
18799 23496 23499 28
18800 23496 23500 28
18801 23501 23502 28
18802 23501 23503 28
18803 23501 23504 28
18804 23501 23505 28
18805 23506 23507 28
18806 23506 23508 28
18807 23506 23509 28
18808 23506 23510 28
18809 23511 23512 28
18810 23511 23513 28
18811 23511 23514 28
18812 23511 23515 28
18813 23516 23517 28
18814 23516 23518 28
18815 23516 23519 28
18816 23516 23520 28
18817 23521 23522 28
18818 23521 23523 28
18819 23521 23524 28
18820 23521 23525 28
18821 23526 23527 28
18822 23526 23528 28
18823 23526 23529 28
18824 23526 23530 28
18825 23531 23532 28
18826 23531 23533 28
18827 23531 23534 28
18828 23531 23535 28
18829 23536 23537 28
18830 23536 23538 28
18831 23536 23539 28
18832 23536 23540 28
18833 23541 23542 28
18834 23541 23543 28
18835 23541 23544 28
18836 23541 23545 28
18837 23546 23547 28
18838 23546 23548 28
18839 23546 23549 28
18840 23546 23550 28
18841 23551 23552 28
18842 23551 23553 28
18843 23551 23554 28
18844 23551 23555 28
18845 23556 23557 28
18846 23556 23558 28
18847 23556 23559 28
18848 23556 23560 28
18849 23561 23562 28
18850 23561 23563 28
18851 23561 23564 28
18852 23561 23565 28
18853 23566 23567 28
18854 23566 23568 28
18855 23566 23569 28
18856 23566 23570 28
18857 23571 23572 28
18858 23571 23573 28
18859 23571 23574 28
18860 23571 23575 28
18861 23576 23577 28
18862 23576 23578 28
18863 23576 23579 28
18864 23576 23580 28
18865 23581 23582 28
18866 23581 23583 28
18867 23581 23584 28
18868 23581 23585 28
18869 23586 23587 28
18870 23586 23588 28
18871 23586 23589 28
18872 23586 23590 28
18873 23591 23592 28
18874 23591 23593 28
18875 23591 23594 28
18876 23591 23595 28
18877 23596 23597 28
18878 23596 23598 28
18879 23596 23599 28
18880 23596 23600 28
18881 23601 23602 28
18882 23601 23603 28
18883 23601 23604 28
18884 23601 23605 28
18885 23606 23607 28
18886 23606 23608 28
18887 23606 23609 28
18888 23606 23610 28
18889 23611 23612 28
18890 23611 23613 28
18891 23611 23614 28
18892 23611 23615 28
18893 23616 23617 28
18894 23616 23618 28
18895 23616 23619 28
18896 23616 23620 28
18897 23621 23622 28
18898 23621 23623 28
18899 23621 23624 28
18900 23621 23625 28
18901 23626 23627 28
18902 23626 23628 28
18903 23626 23629 28
18904 23626 23630 28
18905 23631 23632 28
18906 23631 23633 28
18907 23631 23634 28
18908 23631 23635 28
18909 23636 23637 28
18910 23636 23638 28
18911 23636 23639 28
18912 23636 23640 28
18913 23641 23642 28
18914 23641 23643 28
18915 23641 23644 28
18916 23641 23645 28
18917 23646 23647 28
18918 23646 23648 28
18919 23646 23649 28
18920 23646 23650 28
18921 23651 23652 28
18922 23651 23653 28
18923 23651 23654 28
18924 23651 23655 28
18925 23656 23657 28
18926 23656 23658 28
18927 23656 23659 28
18928 23656 23660 28
18929 23661 23662 28
18930 23661 23663 28
18931 23661 23664 28
18932 23661 23665 28
18933 23666 23667 28
18934 23666 23668 28
18935 23666 23669 28
18936 23666 23670 28
18937 23671 23672 28
18938 23671 23673 28
18939 23671 23674 28
18940 23671 23675 28
18941 23676 23677 28
18942 23676 23678 28
18943 23676 23679 28
18944 23676 23680 28
18945 23681 23682 28
18946 23681 23683 28
18947 23681 23684 28
18948 23681 23685 28
18949 23686 23687 28
18950 23686 23688 28
18951 23686 23689 28
18952 23686 23690 28
18953 23691 23692 28
18954 23691 23693 28
18955 23691 23694 28
18956 23691 23695 28
18957 23696 23697 28
18958 23696 23698 28
18959 23696 23699 28
18960 23696 23700 28
18961 23701 23702 28
18962 23701 23703 28
18963 23701 23704 28
18964 23701 23705 28
18965 23706 23707 28
18966 23706 23708 28
18967 23706 23709 28
18968 23706 23710 28
18969 23711 23712 28
18970 23711 23713 28
18971 23711 23714 28
18972 23711 23715 28
18973 23716 23717 28
18974 23716 23718 28
18975 23716 23719 28
18976 23716 23720 28
18977 23721 23722 28
18978 23721 23723 28
18979 23721 23724 28
18980 23721 23725 28
18981 23726 23727 28
18982 23726 23728 28
18983 23726 23729 28
18984 23726 23730 28
18985 23731 23732 28
18986 23731 23733 28
18987 23731 23734 28
18988 23731 23735 28
18989 23736 23737 28
18990 23736 23738 28
18991 23736 23739 28
18992 23736 23740 28
18993 23741 23742 28
18994 23741 23743 28
18995 23741 23744 28
18996 23741 23745 28
18997 23746 23747 28
18998 23746 23748 28
18999 23746 23749 28
19000 23746 23750 28
19001 23751 23752 28
19002 23751 23753 28
19003 23751 23754 28
19004 23751 23755 28
19005 23756 23757 28
19006 23756 23758 28
19007 23756 23759 28
19008 23756 23760 28
19009 23761 23762 28
19010 23761 23763 28
19011 23761 23764 28
19012 23761 23765 28
19013 23766 23767 28
19014 23766 23768 28
19015 23766 23769 28
19016 23766 23770 28
19017 23771 23772 28
19018 23771 23773 28
19019 23771 23774 28
19020 23771 23775 28
19021 23776 23777 28
19022 23776 23778 28
19023 23776 23779 28
19024 23776 23780 28
19025 23781 23782 28
19026 23781 23783 28
19027 23781 23784 28
19028 23781 23785 28
19029 23786 23787 28
19030 23786 23788 28
19031 23786 23789 28
19032 23786 23790 28
19033 23791 23792 28
19034 23791 23793 28
19035 23791 23794 28
19036 23791 23795 28
19037 23796 23797 28
19038 23796 23798 28
19039 23796 23799 28
19040 23796 23800 28
19041 23801 23802 28
19042 23801 23803 28
19043 23801 23804 28
19044 23801 23805 28
19045 23806 23807 28
19046 23806 23808 28
19047 23806 23809 28
19048 23806 23810 28
19049 23811 23812 28
19050 23811 23813 28
19051 23811 23814 28
19052 23811 23815 28
19053 23816 23817 28
19054 23816 23818 28
19055 23816 23819 28
19056 23816 23820 28
19057 23821 23822 28
19058 23821 23823 28
19059 23821 23824 28
19060 23821 23825 28
19061 23826 23827 28
19062 23826 23828 28
19063 23826 23829 28
19064 23826 23830 28
19065 23831 23832 28
19066 23831 23833 28
19067 23831 23834 28
19068 23831 23835 28
19069 23836 23837 28
19070 23836 23838 28
19071 23836 23839 28
19072 23836 23840 28
19073 23841 23842 28
19074 23841 23843 28
19075 23841 23844 28
19076 23841 23845 28
19077 23846 23847 28
19078 23846 23848 28
19079 23846 23849 28
19080 23846 23850 28
19081 23851 23852 28
19082 23851 23853 28
19083 23851 23854 28
19084 23851 23855 28
19085 23856 23857 28
19086 23856 23858 28
19087 23856 23859 28
19088 23856 23860 28
19089 23861 23862 28
19090 23861 23863 28
19091 23861 23864 28
19092 23861 23865 28
19093 23866 23867 28
19094 23866 23868 28
19095 23866 23869 28
19096 23866 23870 28
19097 23871 23872 28
19098 23871 23873 28
19099 23871 23874 28
19100 23871 23875 28
19101 23876 23877 28
19102 23876 23878 28
19103 23876 23879 28
19104 23876 23880 28
19105 23881 23882 28
19106 23881 23883 28
19107 23881 23884 28
19108 23881 23885 28
19109 23886 23887 28
19110 23886 23888 28
19111 23886 23889 28
19112 23886 23890 28
19113 23891 23892 28
19114 23891 23893 28
19115 23891 23894 28
19116 23891 23895 28
19117 23896 23897 28
19118 23896 23898 28
19119 23896 23899 28
19120 23896 23900 28
19121 23901 23902 28
19122 23901 23903 28
19123 23901 23904 28
19124 23901 23905 28
19125 23906 23907 28
19126 23906 23908 28
19127 23906 23909 28
19128 23906 23910 28
19129 23911 23912 28
19130 23911 23913 28
19131 23911 23914 28
19132 23911 23915 28
19133 23916 23917 28
19134 23916 23918 28
19135 23916 23919 28
19136 23916 23920 28
19137 23921 23922 28
19138 23921 23923 28
19139 23921 23924 28
19140 23921 23925 28
19141 23926 23927 28
19142 23926 23928 28
19143 23926 23929 28
19144 23926 23930 28
19145 23931 23932 28
19146 23931 23933 28
19147 23931 23934 28
19148 23931 23935 28
19149 23936 23937 28
19150 23936 23938 28
19151 23936 23939 28
19152 23936 23940 28
19153 23941 23942 28
19154 23941 23943 28
19155 23941 23944 28
19156 23941 23945 28
19157 23946 23947 28
19158 23946 23948 28
19159 23946 23949 28
19160 23946 23950 28
19161 23951 23952 28
19162 23951 23953 28
19163 23951 23954 28
19164 23951 23955 28
19165 23956 23957 28
19166 23956 23958 28
19167 23956 23959 28
19168 23956 23960 28
19169 23961 23962 28
19170 23961 23963 28
19171 23961 23964 28
19172 23961 23965 28
19173 23966 23967 28
19174 23966 23968 28
19175 23966 23969 28
19176 23966 23970 28
19177 23971 23972 28
19178 23971 23973 28
19179 23971 23974 28
19180 23971 23975 28
19181 23976 23977 28
19182 23976 23978 28
19183 23976 23979 28
19184 23976 23980 28
19185 23981 23982 28
19186 23981 23983 28
19187 23981 23984 28
19188 23981 23985 28
19189 23986 23987 28
19190 23986 23988 28
19191 23986 23989 28
19192 23986 23990 28
19193 23991 23992 28
19194 23991 23993 28
19195 23991 23994 28
19196 23991 23995 28
19197 23996 23997 28
19198 23996 23998 28
19199 23996 23999 28
19200 23996 24000 28
19201 24001 24002 28
19202 24001 24003 28
19203 24001 24004 28
19204 24001 24005 28
19205 24006 24007 28
19206 24006 24008 28
19207 24006 24009 28
19208 24006 24010 28
19209 24011 24012 28
19210 24011 24013 28
19211 24011 24014 28
19212 24011 24015 28
19213 24016 24017 28
19214 24016 24018 28
19215 24016 24019 28
19216 24016 24020 28
19217 24021 24022 28
19218 24021 24023 28
19219 24021 24024 28
19220 24021 24025 28
19221 24026 24027 28
19222 24026 24028 28
19223 24026 24029 28
19224 24026 24030 28
19225 24031 24032 28
19226 24031 24033 28
19227 24031 24034 28
19228 24031 24035 28
19229 24036 24037 28
19230 24036 24038 28
19231 24036 24039 28
19232 24036 24040 28
19233 24041 24042 28
19234 24041 24043 28
19235 24041 24044 28
19236 24041 24045 28
19237 24046 24047 28
19238 24046 24048 28
19239 24046 24049 28
19240 24046 24050 28
19241 24051 24052 28
19242 24051 24053 28
19243 24051 24054 28
19244 24051 24055 28
19245 24056 24057 28
19246 24056 24058 28
19247 24056 24059 28
19248 24056 24060 28
19249 24061 24062 28
19250 24061 24063 28
19251 24061 24064 28
19252 24061 24065 28
19253 24066 24067 28
19254 24066 24068 28
19255 24066 24069 28
19256 24066 24070 28
19257 24071 24072 28
19258 24071 24073 28
19259 24071 24074 28
19260 24071 24075 28
19261 24076 24077 28
19262 24076 24078 28
19263 24076 24079 28
19264 24076 24080 28
19265 24081 24082 28
19266 24081 24083 28
19267 24081 24084 28
19268 24081 24085 28
19269 24086 24087 28
19270 24086 24088 28
19271 24086 24089 28
19272 24086 24090 28
19273 24091 24092 28
19274 24091 24093 28
19275 24091 24094 28
19276 24091 24095 28
19277 24096 24097 28
19278 24096 24098 28
19279 24096 24099 28
19280 24096 24100 28
19281 24101 24102 28
19282 24101 24103 28
19283 24101 24104 28
19284 24101 24105 28
19285 24106 24107 28
19286 24106 24108 28
19287 24106 24109 28
19288 24106 24110 28
19289 24111 24112 28
19290 24111 24113 28
19291 24111 24114 28
19292 24111 24115 28
19293 24116 24117 28
19294 24116 24118 28
19295 24116 24119 28
19296 24116 24120 28
19297 24121 24122 28
19298 24121 24123 28
19299 24121 24124 28
19300 24121 24125 28
19301 24126 24127 28
19302 24126 24128 28
19303 24126 24129 28
19304 24126 24130 28
19305 24131 24132 28
19306 24131 24133 28
19307 24131 24134 28
19308 24131 24135 28
19309 24136 24137 28
19310 24136 24138 28
19311 24136 24139 28
19312 24136 24140 28
19313 24141 24142 28
19314 24141 24143 28
19315 24141 24144 28
19316 24141 24145 28
19317 24146 24147 28
19318 24146 24148 28
19319 24146 24149 28
19320 24146 24150 28
19321 24151 24152 28
19322 24151 24153 28
19323 24151 24154 28
19324 24151 24155 28
19325 24156 24157 28
19326 24156 24158 28
19327 24156 24159 28
19328 24156 24160 28
19329 24161 24162 28
19330 24161 24163 28
19331 24161 24164 28
19332 24161 24165 28
19333 24166 24167 28
19334 24166 24168 28
19335 24166 24169 28
19336 24166 24170 28
19337 24171 24172 28
19338 24171 24173 28
19339 24171 24174 28
19340 24171 24175 28
19341 24176 24177 28
19342 24176 24178 28
19343 24176 24179 28
19344 24176 24180 28
19345 24181 24182 28
19346 24181 24183 28
19347 24181 24184 28
19348 24181 24185 28
19349 24186 24187 28
19350 24186 24188 28
19351 24186 24189 28
19352 24186 24190 28
19353 24191 24192 28
19354 24191 24193 28
19355 24191 24194 28
19356 24191 24195 28
19357 24196 24197 28
19358 24196 24198 28
19359 24196 24199 28
19360 24196 24200 28
19361 24201 24202 28
19362 24201 24203 28
19363 24201 24204 28
19364 24201 24205 28
19365 24206 24207 28
19366 24206 24208 28
19367 24206 24209 28
19368 24206 24210 28
19369 24211 24212 28
19370 24211 24213 28
19371 24211 24214 28
19372 24211 24215 28
19373 24216 24217 28
19374 24216 24218 28
19375 24216 24219 28
19376 24216 24220 28
19377 24221 24222 28
19378 24221 24223 28
19379 24221 24224 28
19380 24221 24225 28
19381 24226 24227 28
19382 24226 24228 28
19383 24226 24229 28
19384 24226 24230 28
19385 24231 24232 28
19386 24231 24233 28
19387 24231 24234 28
19388 24231 24235 28
19389 24236 24237 28
19390 24236 24238 28
19391 24236 24239 28
19392 24236 24240 28
19393 24241 24242 28
19394 24241 24243 28
19395 24241 24244 28
19396 24241 24245 28
19397 24246 24247 28
19398 24246 24248 28
19399 24246 24249 28
19400 24246 24250 28
19401 24251 24252 28
19402 24251 24253 28
19403 24251 24254 28
19404 24251 24255 28
19405 24256 24257 28
19406 24256 24258 28
19407 24256 24259 28
19408 24256 24260 28
19409 24261 24262 28
19410 24261 24263 28
19411 24261 24264 28
19412 24261 24265 28
19413 24266 24267 28
19414 24266 24268 28
19415 24266 24269 28
19416 24266 24270 28
19417 24271 24272 28
19418 24271 24273 28
19419 24271 24274 28
19420 24271 24275 28
19421 24276 24277 28
19422 24276 24278 28
19423 24276 24279 28
19424 24276 24280 28
19425 24281 24282 28
19426 24281 24283 28
19427 24281 24284 28
19428 24281 24285 28
19429 24286 24287 28
19430 24286 24288 28
19431 24286 24289 28
19432 24286 24290 28
19433 24291 24292 28
19434 24291 24293 28
19435 24291 24294 28
19436 24291 24295 28
19437 24296 24297 28
19438 24296 24298 28
19439 24296 24299 28
19440 24296 24300 28
19441 24301 24302 28
19442 24301 24303 28
19443 24301 24304 28
19444 24301 24305 28
19445 24306 24307 28
19446 24306 24308 28
19447 24306 24309 28
19448 24306 24310 28
19449 24311 24312 28
19450 24311 24313 28
19451 24311 24314 28
19452 24311 24315 28
19453 24316 24317 28
19454 24316 24318 28
19455 24316 24319 28
19456 24316 24320 28
19457 24321 24322 28
19458 24321 24323 28
19459 24321 24324 28
19460 24321 24325 28
19461 24326 24327 28
19462 24326 24328 28
19463 24326 24329 28
19464 24326 24330 28
19465 24331 24332 28
19466 24331 24333 28
19467 24331 24334 28
19468 24331 24335 28
19469 24336 24337 28
19470 24336 24338 28
19471 24336 24339 28
19472 24336 24340 28
19473 24341 24342 28
19474 24341 24343 28
19475 24341 24344 28
19476 24341 24345 28
19477 24346 24347 28
19478 24346 24348 28
19479 24346 24349 28
19480 24346 24350 28
19481 24351 24352 28
19482 24351 24353 28
19483 24351 24354 28
19484 24351 24355 28
19485 24356 24357 28
19486 24356 24358 28
19487 24356 24359 28
19488 24356 24360 28
19489 24361 24362 28
19490 24361 24363 28
19491 24361 24364 28
19492 24361 24365 28
19493 24366 24367 28
19494 24366 24368 28
19495 24366 24369 28
19496 24366 24370 28
19497 24371 24372 28
19498 24371 24373 28
19499 24371 24374 28
19500 24371 24375 28
19501 24376 24377 28
19502 24376 24378 28
19503 24376 24379 28
19504 24376 24380 28
19505 24381 24382 28
19506 24381 24383 28
19507 24381 24384 28
19508 24381 24385 28
19509 24386 24387 28
19510 24386 24388 28
19511 24386 24389 28
19512 24386 24390 28
19513 24391 24392 28
19514 24391 24393 28
19515 24391 24394 28
19516 24391 24395 28
19517 24396 24397 28
19518 24396 24398 28
19519 24396 24399 28
19520 24396 24400 28
19521 24401 24402 28
19522 24401 24403 28
19523 24401 24404 28
19524 24401 24405 28
19525 24406 24407 28
19526 24406 24408 28
19527 24406 24409 28
19528 24406 24410 28
19529 24411 24412 28
19530 24411 24413 28
19531 24411 24414 28
19532 24411 24415 28
19533 24416 24417 28
19534 24416 24418 28
19535 24416 24419 28
19536 24416 24420 28
19537 24421 24422 28
19538 24421 24423 28
19539 24421 24424 28
19540 24421 24425 28
19541 24426 24427 28
19542 24426 24428 28
19543 24426 24429 28
19544 24426 24430 28
19545 24431 24432 28
19546 24431 24433 28
19547 24431 24434 28
19548 24431 24435 28
19549 24436 24437 28
19550 24436 24438 28
19551 24436 24439 28
19552 24436 24440 28
19553 24441 24442 28
19554 24441 24443 28
19555 24441 24444 28
19556 24441 24445 28
19557 24446 24447 28
19558 24446 24448 28
19559 24446 24449 28
19560 24446 24450 28
19561 24451 24452 28
19562 24451 24453 28
19563 24451 24454 28
19564 24451 24455 28
19565 24456 24457 28
19566 24456 24458 28
19567 24456 24459 28
19568 24456 24460 28
19569 24461 24462 28
19570 24461 24463 28
19571 24461 24464 28
19572 24461 24465 28
19573 24466 24467 28
19574 24466 24468 28
19575 24466 24469 28
19576 24466 24470 28
19577 24471 24472 28
19578 24471 24473 28
19579 24471 24474 28
19580 24471 24475 28
19581 24476 24477 28
19582 24476 24478 28
19583 24476 24479 28
19584 24476 24480 28
19585 24481 24482 28
19586 24481 24483 28
19587 24481 24484 28
19588 24481 24485 28
19589 24486 24487 28
19590 24486 24488 28
19591 24486 24489 28
19592 24486 24490 28
19593 24491 24492 28
19594 24491 24493 28
19595 24491 24494 28
19596 24491 24495 28
19597 24496 24497 28
19598 24496 24498 28
19599 24496 24499 28
19600 24496 24500 28
19601 24501 24502 28
19602 24501 24503 28
19603 24501 24504 28
19604 24501 24505 28
19605 24506 24507 28
19606 24506 24508 28
19607 24506 24509 28
19608 24506 24510 28
19609 24511 24512 28
19610 24511 24513 28
19611 24511 24514 28
19612 24511 24515 28
19613 24516 24517 28
19614 24516 24518 28
19615 24516 24519 28
19616 24516 24520 28
19617 24521 24522 28
19618 24521 24523 28
19619 24521 24524 28
19620 24521 24525 28
19621 24526 24527 28
19622 24526 24528 28
19623 24526 24529 28
19624 24526 24530 28
19625 24531 24532 28
19626 24531 24533 28
19627 24531 24534 28
19628 24531 24535 28
19629 24536 24537 28
19630 24536 24538 28
19631 24536 24539 28
19632 24536 24540 28
19633 24541 24542 28
19634 24541 24543 28
19635 24541 24544 28
19636 24541 24545 28
19637 24546 24547 28
19638 24546 24548 28
19639 24546 24549 28
19640 24546 24550 28
19641 24551 24552 28
19642 24551 24553 28
19643 24551 24554 28
19644 24551 24555 28
19645 24556 24557 28
19646 24556 24558 28
19647 24556 24559 28
19648 24556 24560 28
19649 24561 24562 28
19650 24561 24563 28
19651 24561 24564 28
19652 24561 24565 28
19653 24566 24567 28
19654 24566 24568 28
19655 24566 24569 28
19656 24566 24570 28
19657 24571 24572 28
19658 24571 24573 28
19659 24571 24574 28
19660 24571 24575 28
19661 24576 24577 28
19662 24576 24578 28
19663 24576 24579 28
19664 24576 24580 28
19665 24581 24582 28
19666 24581 24583 28
19667 24581 24584 28
19668 24581 24585 28
19669 24586 24587 28
19670 24586 24588 28
19671 24586 24589 28
19672 24586 24590 28
19673 24591 24592 28
19674 24591 24593 28
19675 24591 24594 28
19676 24591 24595 28
19677 24596 24597 28
19678 24596 24598 28
19679 24596 24599 28
19680 24596 24600 28
19681 24601 24602 28
19682 24601 24603 28
19683 24601 24604 28
19684 24601 24605 28
19685 24606 24607 28
19686 24606 24608 28
19687 24606 24609 28
19688 24606 24610 28
19689 24611 24612 28
19690 24611 24613 28
19691 24611 24614 28
19692 24611 24615 28
19693 24616 24617 28
19694 24616 24618 28
19695 24616 24619 28
19696 24616 24620 28
19697 24621 24622 28
19698 24621 24623 28
19699 24621 24624 28
19700 24621 24625 28
19701 24626 24627 28
19702 24626 24628 28
19703 24626 24629 28
19704 24626 24630 28
19705 24631 24632 28
19706 24631 24633 28
19707 24631 24634 28
19708 24631 24635 28
19709 24636 24637 28
19710 24636 24638 28
19711 24636 24639 28
19712 24636 24640 28
19713 24641 24642 28
19714 24641 24643 28
19715 24641 24644 28
19716 24641 24645 28
19717 24646 24647 28
19718 24646 24648 28
19719 24646 24649 28
19720 24646 24650 28
19721 24651 24652 28
19722 24651 24653 28
19723 24651 24654 28
19724 24651 24655 28
19725 24656 24657 28
19726 24656 24658 28
19727 24656 24659 28
19728 24656 24660 28
19729 24661 24662 28
19730 24661 24663 28
19731 24661 24664 28
19732 24661 24665 28
19733 24666 24667 28
19734 24666 24668 28
19735 24666 24669 28
19736 24666 24670 28
19737 24671 24672 28
19738 24671 24673 28
19739 24671 24674 28
19740 24671 24675 28
19741 24676 24677 28
19742 24676 24678 28
19743 24676 24679 28
19744 24676 24680 28
19745 24681 24682 28
19746 24681 24683 28
19747 24681 24684 28
19748 24681 24685 28
19749 24686 24687 28
19750 24686 24688 28
19751 24686 24689 28
19752 24686 24690 28
19753 24691 24692 28
19754 24691 24693 28
19755 24691 24694 28
19756 24691 24695 28
19757 24696 24697 28
19758 24696 24698 28
19759 24696 24699 28
19760 24696 24700 28
19761 24701 24702 28
19762 24701 24703 28
19763 24701 24704 28
19764 24701 24705 28
19765 24706 24707 28
19766 24706 24708 28
19767 24706 24709 28
19768 24706 24710 28
19769 24711 24712 28
19770 24711 24713 28
19771 24711 24714 28
19772 24711 24715 28
19773 24716 24717 28
19774 24716 24718 28
19775 24716 24719 28
19776 24716 24720 28
19777 24721 24722 28
19778 24721 24723 28
19779 24721 24724 28
19780 24721 24725 28
19781 24726 24727 28
19782 24726 24728 28
19783 24726 24729 28
19784 24726 24730 28
19785 24731 24732 28
19786 24731 24733 28
19787 24731 24734 28
19788 24731 24735 28
19789 24736 24737 28
19790 24736 24738 28
19791 24736 24739 28
19792 24736 24740 28
19793 24741 24742 28
19794 24741 24743 28
19795 24741 24744 28
19796 24741 24745 28
19797 24746 24747 28
19798 24746 24748 28
19799 24746 24749 28
19800 24746 24750 28
19801 24751 24752 28
19802 24751 24753 28
19803 24751 24754 28
19804 24751 24755 28
19805 24756 24757 28
19806 24756 24758 28
19807 24756 24759 28
19808 24756 24760 28
19809 24761 24762 28
19810 24761 24763 28
19811 24761 24764 28
19812 24761 24765 28
19813 24766 24767 28
19814 24766 24768 28
19815 24766 24769 28
19816 24766 24770 28
19817 24771 24772 28
19818 24771 24773 28
19819 24771 24774 28
19820 24771 24775 28
19821 24776 24777 28
19822 24776 24778 28
19823 24776 24779 28
19824 24776 24780 28
19825 24781 24782 28
19826 24781 24783 28
19827 24781 24784 28
19828 24781 24785 28
19829 24786 24787 28
19830 24786 24788 28
19831 24786 24789 28
19832 24786 24790 28
19833 24791 24792 28
19834 24791 24793 28
19835 24791 24794 28
19836 24791 24795 28
19837 24796 24797 28
19838 24796 24798 28
19839 24796 24799 28
19840 24796 24800 28
19841 24801 24802 28
19842 24801 24803 28
19843 24801 24804 28
19844 24801 24805 28
19845 24806 24807 28
19846 24806 24808 28
19847 24806 24809 28
19848 24806 24810 28
19849 24811 24812 28
19850 24811 24813 28
19851 24811 24814 28
19852 24811 24815 28
19853 24816 24817 28
19854 24816 24818 28
19855 24816 24819 28
19856 24816 24820 28
19857 24821 24822 28
19858 24821 24823 28
19859 24821 24824 28
19860 24821 24825 28
19861 24826 24827 28
19862 24826 24828 28
19863 24826 24829 28
19864 24826 24830 28
19865 24831 24832 28
19866 24831 24833 28
19867 24831 24834 28
19868 24831 24835 28
19869 24836 24837 28
19870 24836 24838 28
19871 24836 24839 28
19872 24836 24840 28
19873 24841 24842 28
19874 24841 24843 28
19875 24841 24844 28
19876 24841 24845 28
19877 24846 24847 28
19878 24846 24848 28
19879 24846 24849 28
19880 24846 24850 28
19881 24851 24852 28
19882 24851 24853 28
19883 24851 24854 28
19884 24851 24855 28
19885 24856 24857 28
19886 24856 24858 28
19887 24856 24859 28
19888 24856 24860 28
19889 24861 24862 28
19890 24861 24863 28
19891 24861 24864 28
19892 24861 24865 28
19893 24866 24867 28
19894 24866 24868 28
19895 24866 24869 28
19896 24866 24870 28
19897 24871 24872 28
19898 24871 24873 28
19899 24871 24874 28
19900 24871 24875 28
19901 24876 24877 28
19902 24876 24878 28
19903 24876 24879 28
19904 24876 24880 28
19905 24881 24882 28
19906 24881 24883 28
19907 24881 24884 28
19908 24881 24885 28
19909 24886 24887 28
19910 24886 24888 28
19911 24886 24889 28
19912 24886 24890 28
19913 24891 24892 28
19914 24891 24893 28
19915 24891 24894 28
19916 24891 24895 28
19917 24896 24897 28
19918 24896 24898 28
19919 24896 24899 28
19920 24896 24900 28
19921 24901 24902 28
19922 24901 24903 28
19923 24901 24904 28
19924 24901 24905 28
19925 24906 24907 28
19926 24906 24908 28
19927 24906 24909 28
19928 24906 24910 28
19929 24911 24912 28
19930 24911 24913 28
19931 24911 24914 28
19932 24911 24915 28
19933 24916 24917 28
19934 24916 24918 28
19935 24916 24919 28
19936 24916 24920 28
19937 24921 24922 28
19938 24921 24923 28
19939 24921 24924 28
19940 24921 24925 28
19941 24926 24927 28
19942 24926 24928 28
19943 24926 24929 28
19944 24926 24930 28
19945 24931 24932 28
19946 24931 24933 28
19947 24931 24934 28
19948 24931 24935 28
19949 24936 24937 28
19950 24936 24938 28
19951 24936 24939 28
19952 24936 24940 28
19953 24941 24942 28
19954 24941 24943 28
19955 24941 24944 28
19956 24941 24945 28
19957 24946 24947 28
19958 24946 24948 28
19959 24946 24949 28
19960 24946 24950 28
19961 24951 24952 28
19962 24951 24953 28
19963 24951 24954 28
19964 24951 24955 28
19965 24956 24957 28
19966 24956 24958 28
19967 24956 24959 28
19968 24956 24960 28
19969 24961 24962 28
19970 24961 24963 28
19971 24961 24964 28
19972 24961 24965 28
19973 24966 24967 28
19974 24966 24968 28
19975 24966 24969 28
19976 24966 24970 28
19977 24971 24972 28
19978 24971 24973 28
19979 24971 24974 28
19980 24971 24975 28
19981 24976 24977 28
19982 24976 24978 28
19983 24976 24979 28
19984 24976 24980 28
19985 24981 24982 28
19986 24981 24983 28
19987 24981 24984 28
19988 24981 24985 28
19989 24986 24987 28
19990 24986 24988 28
19991 24986 24989 28
19992 24986 24990 28
19993 24991 24992 28
19994 24991 24993 28
19995 24991 24994 28
19996 24991 24995 28
19997 24996 24997 28
19998 24996 24998 28
19999 24996 24999 28
20000 24996 25000 28
20001 25001 25002 28
20002 25001 25003 28
20003 25001 25004 28
20004 25001 25005 28
20005 25006 25007 28
20006 25006 25008 28
20007 25006 25009 28
20008 25006 25010 28
20009 25011 25012 28
20010 25011 25013 28
20011 25011 25014 28
20012 25011 25015 28
20013 25016 25017 28
20014 25016 25018 28
20015 25016 25019 28
20016 25016 25020 28
20017 25021 25022 28
20018 25021 25023 28
20019 25021 25024 28
20020 25021 25025 28
20021 25026 25027 28
20022 25026 25028 28
20023 25026 25029 28
20024 25026 25030 28
20025 25031 25032 28
20026 25031 25033 28
20027 25031 25034 28
20028 25031 25035 28
20029 25036 25037 28
20030 25036 25038 28
20031 25036 25039 28
20032 25036 25040 28
20033 25041 25042 28
20034 25041 25043 28
20035 25041 25044 28
20036 25041 25045 28
20037 25046 25047 28
20038 25046 25048 28
20039 25046 25049 28
20040 25046 25050 28
20041 25051 25052 28
20042 25051 25053 28
20043 25051 25054 28
20044 25051 25055 28
20045 25056 25057 28
20046 25056 25058 28
20047 25056 25059 28
20048 25056 25060 28
20049 25061 25062 28
20050 25061 25063 28
20051 25061 25064 28
20052 25061 25065 28
20053 25066 25067 28
20054 25066 25068 28
20055 25066 25069 28
20056 25066 25070 28
20057 25071 25072 28
20058 25071 25073 28
20059 25071 25074 28
20060 25071 25075 28
20061 25076 25077 28
20062 25076 25078 28
20063 25076 25079 28
20064 25076 25080 28
20065 25081 25082 28
20066 25081 25083 28
20067 25081 25084 28
20068 25081 25085 28
20069 25086 25087 28
20070 25086 25088 28
20071 25086 25089 28
20072 25086 25090 28
20073 25091 25092 28
20074 25091 25093 28
20075 25091 25094 28
20076 25091 25095 28
20077 25096 25097 28
20078 25096 25098 28
20079 25096 25099 28
20080 25096 25100 28
20081 25101 25102 28
20082 25101 25103 28
20083 25101 25104 28
20084 25101 25105 28
20085 25106 25107 28
20086 25106 25108 28
20087 25106 25109 28
20088 25106 25110 28
20089 25111 25112 28
20090 25111 25113 28
20091 25111 25114 28
20092 25111 25115 28
20093 25116 25117 28
20094 25116 25118 28
20095 25116 25119 28
20096 25116 25120 28
20097 25121 25122 28
20098 25121 25123 28
20099 25121 25124 28
20100 25121 25125 28
20101 25126 25127 28
20102 25126 25128 28
20103 25126 25129 28
20104 25126 25130 28
20105 25131 25132 28
20106 25131 25133 28
20107 25131 25134 28
20108 25131 25135 28
20109 25136 25137 28
20110 25136 25138 28
20111 25136 25139 28
20112 25136 25140 28
20113 25141 25142 28
20114 25141 25143 28
20115 25141 25144 28
20116 25141 25145 28
20117 25146 25147 28
20118 25146 25148 28
20119 25146 25149 28
20120 25146 25150 28
20121 25151 25152 28
20122 25151 25153 28
20123 25151 25154 28
20124 25151 25155 28
20125 25156 25157 28
20126 25156 25158 28
20127 25156 25159 28
20128 25156 25160 28
20129 25161 25162 28
20130 25161 25163 28
20131 25161 25164 28
20132 25161 25165 28
20133 25166 25167 28
20134 25166 25168 28
20135 25166 25169 28
20136 25166 25170 28
20137 25171 25172 28
20138 25171 25173 28
20139 25171 25174 28
20140 25171 25175 28
20141 25176 25177 28
20142 25176 25178 28
20143 25176 25179 28
20144 25176 25180 28
20145 25181 25182 28
20146 25181 25183 28
20147 25181 25184 28
20148 25181 25185 28
20149 25186 25187 28
20150 25186 25188 28
20151 25186 25189 28
20152 25186 25190 28
20153 25191 25192 28
20154 25191 25193 28
20155 25191 25194 28
20156 25191 25195 28
20157 25196 25197 28
20158 25196 25198 28
20159 25196 25199 28
20160 25196 25200 28
20161 25201 25202 28
20162 25201 25203 28
20163 25201 25204 28
20164 25201 25205 28
20165 25206 25207 28
20166 25206 25208 28
20167 25206 25209 28
20168 25206 25210 28
20169 25211 25212 28
20170 25211 25213 28
20171 25211 25214 28
20172 25211 25215 28
20173 25216 25217 28
20174 25216 25218 28
20175 25216 25219 28
20176 25216 25220 28
20177 25221 25222 28
20178 25221 25223 28
20179 25221 25224 28
20180 25221 25225 28
20181 25226 25227 28
20182 25226 25228 28
20183 25226 25229 28
20184 25226 25230 28
20185 25231 25232 28
20186 25231 25233 28
20187 25231 25234 28
20188 25231 25235 28
20189 25236 25237 28
20190 25236 25238 28
20191 25236 25239 28
20192 25236 25240 28
20193 25241 25242 28
20194 25241 25243 28
20195 25241 25244 28
20196 25241 25245 28
20197 25246 25247 28
20198 25246 25248 28
20199 25246 25249 28
20200 25246 25250 28
20201 25251 25252 28
20202 25251 25253 28
20203 25251 25254 28
20204 25251 25255 28
20205 25256 25257 28
20206 25256 25258 28
20207 25256 25259 28
20208 25256 25260 28
20209 25261 25262 28
20210 25261 25263 28
20211 25261 25264 28
20212 25261 25265 28
20213 25266 25267 28
20214 25266 25268 28
20215 25266 25269 28
20216 25266 25270 28
20217 25271 25272 28
20218 25271 25273 28
20219 25271 25274 28
20220 25271 25275 28
20221 25276 25277 28
20222 25276 25278 28
20223 25276 25279 28
20224 25276 25280 28
20225 25281 25282 28
20226 25281 25283 28
20227 25281 25284 28
20228 25281 25285 28
20229 25286 25287 28
20230 25286 25288 28
20231 25286 25289 28
20232 25286 25290 28
20233 25291 25292 28
20234 25291 25293 28
20235 25291 25294 28
20236 25291 25295 28
20237 25296 25297 28
20238 25296 25298 28
20239 25296 25299 28
20240 25296 25300 28
20241 25301 25302 28
20242 25301 25303 28
20243 25301 25304 28
20244 25301 25305 28
20245 25306 25307 28
20246 25306 25308 28
20247 25306 25309 28
20248 25306 25310 28
20249 25311 25312 28
20250 25311 25313 28
20251 25311 25314 28
20252 25311 25315 28
20253 25316 25317 28
20254 25316 25318 28
20255 25316 25319 28
20256 25316 25320 28
20257 25321 25322 28
20258 25321 25323 28
20259 25321 25324 28
20260 25321 25325 28
20261 25326 25327 28
20262 25326 25328 28
20263 25326 25329 28
20264 25326 25330 28
20265 25331 25332 28
20266 25331 25333 28
20267 25331 25334 28
20268 25331 25335 28
20269 25336 25337 28
20270 25336 25338 28
20271 25336 25339 28
20272 25336 25340 28
20273 25341 25342 28
20274 25341 25343 28
20275 25341 25344 28
20276 25341 25345 28
20277 25346 25347 28
20278 25346 25348 28
20279 25346 25349 28
20280 25346 25350 28
20281 25351 25352 28
20282 25351 25353 28
20283 25351 25354 28
20284 25351 25355 28
20285 25356 25357 28
20286 25356 25358 28
20287 25356 25359 28
20288 25356 25360 28
20289 25361 25362 28
20290 25361 25363 28
20291 25361 25364 28
20292 25361 25365 28
20293 25366 25367 28
20294 25366 25368 28
20295 25366 25369 28
20296 25366 25370 28
20297 25371 25372 28
20298 25371 25373 28
20299 25371 25374 28
20300 25371 25375 28
20301 25376 25377 28
20302 25376 25378 28
20303 25376 25379 28
20304 25376 25380 28
20305 25381 25382 28
20306 25381 25383 28
20307 25381 25384 28
20308 25381 25385 28
20309 25386 25387 28
20310 25386 25388 28
20311 25386 25389 28
20312 25386 25390 28
20313 25391 25392 28
20314 25391 25393 28
20315 25391 25394 28
20316 25391 25395 28
20317 25396 25397 28
20318 25396 25398 28
20319 25396 25399 28
20320 25396 25400 28
20321 25401 25402 28
20322 25401 25403 28
20323 25401 25404 28
20324 25401 25405 28
20325 25406 25407 28
20326 25406 25408 28
20327 25406 25409 28
20328 25406 25410 28
20329 25411 25412 28
20330 25411 25413 28
20331 25411 25414 28
20332 25411 25415 28
20333 25416 25417 28
20334 25416 25418 28
20335 25416 25419 28
20336 25416 25420 28
20337 25421 25422 28
20338 25421 25423 28
20339 25421 25424 28
20340 25421 25425 28
20341 25426 25427 28
20342 25426 25428 28
20343 25426 25429 28
20344 25426 25430 28
20345 25431 25432 28
20346 25431 25433 28
20347 25431 25434 28
20348 25431 25435 28
20349 25436 25437 28
20350 25436 25438 28
20351 25436 25439 28
20352 25436 25440 28
20353 25441 25442 28
20354 25441 25443 28
20355 25441 25444 28
20356 25441 25445 28
20357 25446 25447 28
20358 25446 25448 28
20359 25446 25449 28
20360 25446 25450 28
20361 25451 25452 28
20362 25451 25453 28
20363 25451 25454 28
20364 25451 25455 28
20365 25456 25457 28
20366 25456 25458 28
20367 25456 25459 28
20368 25456 25460 28
20369 25461 25462 28
20370 25461 25463 28
20371 25461 25464 28
20372 25461 25465 28
20373 25466 25467 28
20374 25466 25468 28
20375 25466 25469 28
20376 25466 25470 28
20377 25471 25472 28
20378 25471 25473 28
20379 25471 25474 28
20380 25471 25475 28
20381 25476 25477 28
20382 25476 25478 28
20383 25476 25479 28
20384 25476 25480 28
20385 25481 25482 28
20386 25481 25483 28
20387 25481 25484 28
20388 25481 25485 28
20389 25486 25487 28
20390 25486 25488 28
20391 25486 25489 28
20392 25486 25490 28
20393 25491 25492 28
20394 25491 25493 28
20395 25491 25494 28
20396 25491 25495 28
20397 25496 25497 28
20398 25496 25498 28
20399 25496 25499 28
20400 25496 25500 28
20401 25501 25502 28
20402 25501 25503 28
20403 25501 25504 28
20404 25501 25505 28
20405 25506 25507 28
20406 25506 25508 28
20407 25506 25509 28
20408 25506 25510 28
20409 25511 25512 28
20410 25511 25513 28
20411 25511 25514 28
20412 25511 25515 28
20413 25516 25517 28
20414 25516 25518 28
20415 25516 25519 28
20416 25516 25520 28
20417 25521 25522 28
20418 25521 25523 28
20419 25521 25524 28
20420 25521 25525 28
20421 25526 25527 28
20422 25526 25528 28
20423 25526 25529 28
20424 25526 25530 28
20425 25531 25532 28
20426 25531 25533 28
20427 25531 25534 28
20428 25531 25535 28
20429 25536 25537 28
20430 25536 25538 28
20431 25536 25539 28
20432 25536 25540 28
20433 25541 25542 28
20434 25541 25543 28
20435 25541 25544 28
20436 25541 25545 28
20437 25546 25547 28
20438 25546 25548 28
20439 25546 25549 28
20440 25546 25550 28
20441 25551 25552 28
20442 25551 25553 28
20443 25551 25554 28
20444 25551 25555 28
20445 25556 25557 28
20446 25556 25558 28
20447 25556 25559 28
20448 25556 25560 28
20449 25561 25562 28
20450 25561 25563 28
20451 25561 25564 28
20452 25561 25565 28
20453 25566 25567 28
20454 25566 25568 28
20455 25566 25569 28
20456 25566 25570 28
20457 25571 25572 28
20458 25571 25573 28
20459 25571 25574 28
20460 25571 25575 28
20461 25576 25577 28
20462 25576 25578 28
20463 25576 25579 28
20464 25576 25580 28
20465 25581 25582 28
20466 25581 25583 28
20467 25581 25584 28
20468 25581 25585 28
20469 25586 25587 28
20470 25586 25588 28
20471 25586 25589 28
20472 25586 25590 28
20473 25591 25592 28
20474 25591 25593 28
20475 25591 25594 28
20476 25591 25595 28
20477 25596 25597 28
20478 25596 25598 28
20479 25596 25599 28
20480 25596 25600 28
20481 25601 25602 28
20482 25601 25603 28
20483 25601 25604 28
20484 25601 25605 28
20485 25606 25607 28
20486 25606 25608 28
20487 25606 25609 28
20488 25606 25610 28
20489 25611 25612 28
20490 25611 25613 28
20491 25611 25614 28
20492 25611 25615 28
20493 25616 25617 28
20494 25616 25618 28
20495 25616 25619 28
20496 25616 25620 28
20497 25621 25622 28
20498 25621 25623 28
20499 25621 25624 28
20500 25621 25625 28
20501 25626 25627 28
20502 25626 25628 28
20503 25626 25629 28
20504 25626 25630 28
20505 25631 25632 28
20506 25631 25633 28
20507 25631 25634 28
20508 25631 25635 28
20509 25636 25637 28
20510 25636 25638 28
20511 25636 25639 28
20512 25636 25640 28
20513 25641 25642 28
20514 25641 25643 28
20515 25641 25644 28
20516 25641 25645 28
20517 25646 25647 28
20518 25646 25648 28
20519 25646 25649 28
20520 25646 25650 28
20521 25651 25652 28
20522 25651 25653 28
20523 25651 25654 28
20524 25651 25655 28
20525 25656 25657 28
20526 25656 25658 28
20527 25656 25659 28
20528 25656 25660 28
20529 25661 25662 28
20530 25661 25663 28
20531 25661 25664 28
20532 25661 25665 28
20533 25666 25667 28
20534 25666 25668 28
20535 25666 25669 28
20536 25666 25670 28
20537 25671 25672 28
20538 25671 25673 28
20539 25671 25674 28
20540 25671 25675 28
20541 25676 25677 28
20542 25676 25678 28
20543 25676 25679 28
20544 25676 25680 28
20545 25681 25682 28
20546 25681 25683 28
20547 25681 25684 28
20548 25681 25685 28
20549 25686 25687 28
20550 25686 25688 28
20551 25686 25689 28
20552 25686 25690 28
20553 25691 25692 28
20554 25691 25693 28
20555 25691 25694 28
20556 25691 25695 28
20557 25696 25697 28
20558 25696 25698 28
20559 25696 25699 28
20560 25696 25700 28
20561 25701 25702 28
20562 25701 25703 28
20563 25701 25704 28
20564 25701 25705 28
20565 25706 25707 28
20566 25706 25708 28
20567 25706 25709 28
20568 25706 25710 28
20569 25711 25712 28
20570 25711 25713 28
20571 25711 25714 28
20572 25711 25715 28
20573 25716 25717 28
20574 25716 25718 28
20575 25716 25719 28
20576 25716 25720 28
20577 25721 25722 28
20578 25721 25723 28
20579 25721 25724 28
20580 25721 25725 28
20581 25726 25727 28
20582 25726 25728 28
20583 25726 25729 28
20584 25726 25730 28
20585 25731 25732 28
20586 25731 25733 28
20587 25731 25734 28
20588 25731 25735 28
20589 25736 25737 28
20590 25736 25738 28
20591 25736 25739 28
20592 25736 25740 28
20593 25741 25742 28
20594 25741 25743 28
20595 25741 25744 28
20596 25741 25745 28
20597 25746 25747 28
20598 25746 25748 28
20599 25746 25749 28
20600 25746 25750 28
20601 25751 25752 28
20602 25751 25753 28
20603 25751 25754 28
20604 25751 25755 28
20605 25756 25757 28
20606 25756 25758 28
20607 25756 25759 28
20608 25756 25760 28
20609 25761 25762 28
20610 25761 25763 28
20611 25761 25764 28
20612 25761 25765 28
20613 25766 25767 28
20614 25766 25768 28
20615 25766 25769 28
20616 25766 25770 28
20617 25771 25772 28
20618 25771 25773 28
20619 25771 25774 28
20620 25771 25775 28
20621 25776 25777 28
20622 25776 25778 28
20623 25776 25779 28
20624 25776 25780 28
20625 25781 25782 28
20626 25781 25783 28
20627 25781 25784 28
20628 25781 25785 28
20629 25786 25787 28
20630 25786 25788 28
20631 25786 25789 28
20632 25786 25790 28
20633 25791 25792 28
20634 25791 25793 28
20635 25791 25794 28
20636 25791 25795 28
20637 25796 25797 28
20638 25796 25798 28
20639 25796 25799 28
20640 25796 25800 28
20641 25801 25802 28
20642 25801 25803 28
20643 25801 25804 28
20644 25801 25805 28
20645 25806 25807 28
20646 25806 25808 28
20647 25806 25809 28
20648 25806 25810 28
20649 25811 25812 28
20650 25811 25813 28
20651 25811 25814 28
20652 25811 25815 28
20653 25816 25817 28
20654 25816 25818 28
20655 25816 25819 28
20656 25816 25820 28
20657 25821 25822 28
20658 25821 25823 28
20659 25821 25824 28
20660 25821 25825 28
20661 25826 25827 28
20662 25826 25828 28
20663 25826 25829 28
20664 25826 25830 28
20665 25831 25832 28
20666 25831 25833 28
20667 25831 25834 28
20668 25831 25835 28
20669 25836 25837 28
20670 25836 25838 28
20671 25836 25839 28
20672 25836 25840 28
20673 25841 25842 28
20674 25841 25843 28
20675 25841 25844 28
20676 25841 25845 28
20677 25846 25847 28
20678 25846 25848 28
20679 25846 25849 28
20680 25846 25850 28
20681 25851 25852 28
20682 25851 25853 28
20683 25851 25854 28
20684 25851 25855 28
20685 25856 25857 28
20686 25856 25858 28
20687 25856 25859 28
20688 25856 25860 28
20689 25861 25862 28
20690 25861 25863 28
20691 25861 25864 28
20692 25861 25865 28
20693 25866 25867 28
20694 25866 25868 28
20695 25866 25869 28
20696 25866 25870 28
20697 25871 25872 28
20698 25871 25873 28
20699 25871 25874 28
20700 25871 25875 28
20701 25876 25877 28
20702 25876 25878 28
20703 25876 25879 28
20704 25876 25880 28
20705 25881 25882 28
20706 25881 25883 28
20707 25881 25884 28
20708 25881 25885 28
20709 25886 25887 28
20710 25886 25888 28
20711 25886 25889 28
20712 25886 25890 28
20713 25891 25892 28
20714 25891 25893 28
20715 25891 25894 28
20716 25891 25895 28
20717 25896 25897 28
20718 25896 25898 28
20719 25896 25899 28
20720 25896 25900 28
20721 25901 25902 28
20722 25901 25903 28
20723 25901 25904 28
20724 25901 25905 28
20725 25906 25907 28
20726 25906 25908 28
20727 25906 25909 28
20728 25906 25910 28
20729 25911 25912 28
20730 25911 25913 28
20731 25911 25914 28
20732 25911 25915 28
20733 25916 25917 28
20734 25916 25918 28
20735 25916 25919 28
20736 25916 25920 28
20737 25921 25922 28
20738 25921 25923 28
20739 25921 25924 28
20740 25921 25925 28
20741 25926 25927 28
20742 25926 25928 28
20743 25926 25929 28
20744 25926 25930 28
20745 25931 25932 28
20746 25931 25933 28
20747 25931 25934 28
20748 25931 25935 28
20749 25936 25937 28
20750 25936 25938 28
20751 25936 25939 28
20752 25936 25940 28
20753 25941 25942 28
20754 25941 25943 28
20755 25941 25944 28
20756 25941 25945 28
20757 25946 25947 28
20758 25946 25948 28
20759 25946 25949 28
20760 25946 25950 28
20761 25951 25952 28
20762 25951 25953 28
20763 25951 25954 28
20764 25951 25955 28
20765 25956 25957 28
20766 25956 25958 28
20767 25956 25959 28
20768 25956 25960 28
20769 25961 25962 28
20770 25961 25963 28
20771 25961 25964 28
20772 25961 25965 28
20773 25966 25967 28
20774 25966 25968 28
20775 25966 25969 28
20776 25966 25970 28
20777 25971 25972 28
20778 25971 25973 28
20779 25971 25974 28
20780 25971 25975 28
20781 25976 25977 28
20782 25976 25978 28
20783 25976 25979 28
20784 25976 25980 28
20785 25981 25982 28
20786 25981 25983 28
20787 25981 25984 28
20788 25981 25985 28
20789 25986 25987 28
20790 25986 25988 28
20791 25986 25989 28
20792 25986 25990 28
20793 25991 25992 28
20794 25991 25993 28
20795 25991 25994 28
20796 25991 25995 28
20797 25996 25997 28
20798 25996 25998 28
20799 25996 25999 28
20800 25996 26000 28
20801 26001 26002 28
20802 26001 26003 28
20803 26001 26004 28
20804 26001 26005 28
20805 26006 26007 28
20806 26006 26008 28
20807 26006 26009 28
20808 26006 26010 28
20809 26011 26012 28
20810 26011 26013 28
20811 26011 26014 28
20812 26011 26015 28
20813 26016 26017 28
20814 26016 26018 28
20815 26016 26019 28
20816 26016 26020 28
20817 26021 26022 28
20818 26021 26023 28
20819 26021 26024 28
20820 26021 26025 28
20821 26026 26027 28
20822 26026 26028 28
20823 26026 26029 28
20824 26026 26030 28
20825 26031 26032 28
20826 26031 26033 28
20827 26031 26034 28
20828 26031 26035 28
20829 26036 26037 28
20830 26036 26038 28
20831 26036 26039 28
20832 26036 26040 28
20833 26041 26042 28
20834 26041 26043 28
20835 26041 26044 28
20836 26041 26045 28
20837 26046 26047 28
20838 26046 26048 28
20839 26046 26049 28
20840 26046 26050 28
20841 26051 26052 28
20842 26051 26053 28
20843 26051 26054 28
20844 26051 26055 28
20845 26056 26057 28
20846 26056 26058 28
20847 26056 26059 28
20848 26056 26060 28
20849 26061 26062 28
20850 26061 26063 28
20851 26061 26064 28
20852 26061 26065 28
20853 26066 26067 28
20854 26066 26068 28
20855 26066 26069 28
20856 26066 26070 28
20857 26071 26072 28
20858 26071 26073 28
20859 26071 26074 28
20860 26071 26075 28
20861 26076 26077 28
20862 26076 26078 28
20863 26076 26079 28
20864 26076 26080 28
20865 26081 26082 28
20866 26081 26083 28
20867 26081 26084 28
20868 26081 26085 28
20869 26086 26087 28
20870 26086 26088 28
20871 26086 26089 28
20872 26086 26090 28
20873 26091 26092 28
20874 26091 26093 28
20875 26091 26094 28
20876 26091 26095 28
20877 26096 26097 28
20878 26096 26098 28
20879 26096 26099 28
20880 26096 26100 28
20881 26101 26102 28
20882 26101 26103 28
20883 26101 26104 28
20884 26101 26105 28
20885 26106 26107 28
20886 26106 26108 28
20887 26106 26109 28
20888 26106 26110 28
20889 26111 26112 28
20890 26111 26113 28
20891 26111 26114 28
20892 26111 26115 28
20893 26116 26117 28
20894 26116 26118 28
20895 26116 26119 28
20896 26116 26120 28
20897 26121 26122 28
20898 26121 26123 28
20899 26121 26124 28
20900 26121 26125 28
20901 26126 26127 28
20902 26126 26128 28
20903 26126 26129 28
20904 26126 26130 28
20905 26131 26132 28
20906 26131 26133 28
20907 26131 26134 28
20908 26131 26135 28
20909 26136 26137 28
20910 26136 26138 28
20911 26136 26139 28
20912 26136 26140 28
20913 26141 26142 28
20914 26141 26143 28
20915 26141 26144 28
20916 26141 26145 28
20917 26146 26147 28
20918 26146 26148 28
20919 26146 26149 28
20920 26146 26150 28
20921 26151 26152 28
20922 26151 26153 28
20923 26151 26154 28
20924 26151 26155 28
20925 26156 26157 28
20926 26156 26158 28
20927 26156 26159 28
20928 26156 26160 28
20929 26161 26162 28
20930 26161 26163 28
20931 26161 26164 28
20932 26161 26165 28
20933 26166 26167 28
20934 26166 26168 28
20935 26166 26169 28
20936 26166 26170 28
20937 26171 26172 28
20938 26171 26173 28
20939 26171 26174 28
20940 26171 26175 28
20941 26176 26177 28
20942 26176 26178 28
20943 26176 26179 28
20944 26176 26180 28
20945 26181 26182 28
20946 26181 26183 28
20947 26181 26184 28
20948 26181 26185 28
20949 26186 26187 28
20950 26186 26188 28
20951 26186 26189 28
20952 26186 26190 28
20953 26191 26192 28
20954 26191 26193 28
20955 26191 26194 28
20956 26191 26195 28
20957 26196 26197 28
20958 26196 26198 28
20959 26196 26199 28
20960 26196 26200 28
20961 26201 26202 28
20962 26201 26203 28
20963 26201 26204 28
20964 26201 26205 28
20965 26206 26207 28
20966 26206 26208 28
20967 26206 26209 28
20968 26206 26210 28
20969 26211 26212 28
20970 26211 26213 28
20971 26211 26214 28
20972 26211 26215 28
20973 26216 26217 28
20974 26216 26218 28
20975 26216 26219 28
20976 26216 26220 28
20977 26221 26222 28
20978 26221 26223 28
20979 26221 26224 28
20980 26221 26225 28
20981 26226 26227 28
20982 26226 26228 28
20983 26226 26229 28
20984 26226 26230 28
20985 26231 26232 28
20986 26231 26233 28
20987 26231 26234 28
20988 26231 26235 28
20989 26236 26237 28
20990 26236 26238 28
20991 26236 26239 28
20992 26236 26240 28
20993 26241 26242 28
20994 26241 26243 28
20995 26241 26244 28
20996 26241 26245 28
20997 26246 26247 28
20998 26246 26248 28
20999 26246 26249 28
21000 26246 26250 28
21001 26251 26252 28
21002 26251 26253 28
21003 26251 26254 28
21004 26251 26255 28
21005 26256 26257 28
21006 26256 26258 28
21007 26256 26259 28
21008 26256 26260 28
21009 26261 26262 28
21010 26261 26263 28
21011 26261 26264 28
21012 26261 26265 28
21013 26266 26267 28
21014 26266 26268 28
21015 26266 26269 28
21016 26266 26270 28
21017 26271 26272 28
21018 26271 26273 28
21019 26271 26274 28
21020 26271 26275 28
21021 26276 26277 28
21022 26276 26278 28
21023 26276 26279 28
21024 26276 26280 28
21025 26281 26282 28
21026 26281 26283 28
21027 26281 26284 28
21028 26281 26285 28
21029 26286 26287 28
21030 26286 26288 28
21031 26286 26289 28
21032 26286 26290 28
21033 26291 26292 28
21034 26291 26293 28
21035 26291 26294 28
21036 26291 26295 28
21037 26296 26297 28
21038 26296 26298 28
21039 26296 26299 28
21040 26296 26300 28
21041 26301 26302 28
21042 26301 26303 28
21043 26301 26304 28
21044 26301 26305 28
21045 26306 26307 28
21046 26306 26308 28
21047 26306 26309 28
21048 26306 26310 28
21049 26311 26312 28
21050 26311 26313 28
21051 26311 26314 28
21052 26311 26315 28
21053 26316 26317 28
21054 26316 26318 28
21055 26316 26319 28
21056 26316 26320 28
21057 26321 26322 28
21058 26321 26323 28
21059 26321 26324 28
21060 26321 26325 28
21061 26326 26327 28
21062 26326 26328 28
21063 26326 26329 28
21064 26326 26330 28
21065 26331 26332 28
21066 26331 26333 28
21067 26331 26334 28
21068 26331 26335 28
21069 26336 26337 28
21070 26336 26338 28
21071 26336 26339 28
21072 26336 26340 28
21073 26341 26342 28
21074 26341 26343 28
21075 26341 26344 28
21076 26341 26345 28
21077 26346 26347 28
21078 26346 26348 28
21079 26346 26349 28
21080 26346 26350 28
21081 26351 26352 28
21082 26351 26353 28
21083 26351 26354 28
21084 26351 26355 28
21085 26356 26357 28
21086 26356 26358 28
21087 26356 26359 28
21088 26356 26360 28
21089 26361 26362 28
21090 26361 26363 28
21091 26361 26364 28
21092 26361 26365 28
21093 26366 26367 28
21094 26366 26368 28
21095 26366 26369 28
21096 26366 26370 28
21097 26371 26372 28
21098 26371 26373 28
21099 26371 26374 28
21100 26371 26375 28
21101 26376 26377 28
21102 26376 26378 28
21103 26376 26379 28
21104 26376 26380 28
21105 26381 26382 28
21106 26381 26383 28
21107 26381 26384 28
21108 26381 26385 28
21109 26386 26387 28
21110 26386 26388 28
21111 26386 26389 28
21112 26386 26390 28
21113 26391 26392 28
21114 26391 26393 28
21115 26391 26394 28
21116 26391 26395 28
21117 26396 26397 28
21118 26396 26398 28
21119 26396 26399 28
21120 26396 26400 28
21121 26401 26402 28
21122 26401 26403 28
21123 26401 26404 28
21124 26401 26405 28
21125 26406 26407 28
21126 26406 26408 28
21127 26406 26409 28
21128 26406 26410 28
21129 26411 26412 28
21130 26411 26413 28
21131 26411 26414 28
21132 26411 26415 28
21133 26416 26417 28
21134 26416 26418 28
21135 26416 26419 28
21136 26416 26420 28
21137 26421 26422 28
21138 26421 26423 28
21139 26421 26424 28
21140 26421 26425 28
21141 26426 26427 28
21142 26426 26428 28
21143 26426 26429 28
21144 26426 26430 28
21145 26431 26432 28
21146 26431 26433 28
21147 26431 26434 28
21148 26431 26435 28
21149 26436 26437 28
21150 26436 26438 28
21151 26436 26439 28
21152 26436 26440 28
21153 26441 26442 28
21154 26441 26443 28
21155 26441 26444 28
21156 26441 26445 28
21157 26446 26447 28
21158 26446 26448 28
21159 26446 26449 28
21160 26446 26450 28
21161 26451 26452 28
21162 26451 26453 28
21163 26451 26454 28
21164 26451 26455 28
21165 26456 26457 28
21166 26456 26458 28
21167 26456 26459 28
21168 26456 26460 28
21169 26461 26462 28
21170 26461 26463 28
21171 26461 26464 28
21172 26461 26465 28
21173 26466 26467 28
21174 26466 26468 28
21175 26466 26469 28
21176 26466 26470 28
21177 26471 26472 28
21178 26471 26473 28
21179 26471 26474 28
21180 26471 26475 28
21181 26476 26477 28
21182 26476 26478 28
21183 26476 26479 28
21184 26476 26480 28
21185 26481 26482 28
21186 26481 26483 28
21187 26481 26484 28
21188 26481 26485 28
21189 26486 26487 28
21190 26486 26488 28
21191 26486 26489 28
21192 26486 26490 28
21193 26491 26492 28
21194 26491 26493 28
21195 26491 26494 28
21196 26491 26495 28
21197 26496 26497 28
21198 26496 26498 28
21199 26496 26499 28
21200 26496 26500 28
21201 26501 26502 28
21202 26501 26503 28
21203 26501 26504 28
21204 26501 26505 28
21205 26506 26507 28
21206 26506 26508 28
21207 26506 26509 28
21208 26506 26510 28
21209 26511 26512 28
21210 26511 26513 28
21211 26511 26514 28
21212 26511 26515 28
21213 26516 26517 28
21214 26516 26518 28
21215 26516 26519 28
21216 26516 26520 28
21217 26521 26522 28
21218 26521 26523 28
21219 26521 26524 28
21220 26521 26525 28
21221 26526 26527 28
21222 26526 26528 28
21223 26526 26529 28
21224 26526 26530 28
21225 26531 26532 28
21226 26531 26533 28
21227 26531 26534 28
21228 26531 26535 28
21229 26536 26537 28
21230 26536 26538 28
21231 26536 26539 28
21232 26536 26540 28
21233 26541 26542 28
21234 26541 26543 28
21235 26541 26544 28
21236 26541 26545 28
21237 26546 26547 28
21238 26546 26548 28
21239 26546 26549 28
21240 26546 26550 28
21241 26551 26552 28
21242 26551 26553 28
21243 26551 26554 28
21244 26551 26555 28
21245 26556 26557 28
21246 26556 26558 28
21247 26556 26559 28
21248 26556 26560 28
21249 26561 26562 28
21250 26561 26563 28
21251 26561 26564 28
21252 26561 26565 28
21253 26566 26567 28
21254 26566 26568 28
21255 26566 26569 28
21256 26566 26570 28
21257 26571 26572 28
21258 26571 26573 28
21259 26571 26574 28
21260 26571 26575 28
21261 26576 26577 28
21262 26576 26578 28
21263 26576 26579 28
21264 26576 26580 28
21265 26581 26582 28
21266 26581 26583 28
21267 26581 26584 28
21268 26581 26585 28
21269 26586 26587 28
21270 26586 26588 28
21271 26586 26589 28
21272 26586 26590 28
21273 26591 26592 28
21274 26591 26593 28
21275 26591 26594 28
21276 26591 26595 28
21277 26596 26597 28
21278 26596 26598 28
21279 26596 26599 28
21280 26596 26600 28
21281 26601 26602 28
21282 26601 26603 28
21283 26601 26604 28
21284 26601 26605 28
21285 26606 26607 28
21286 26606 26608 28
21287 26606 26609 28
21288 26606 26610 28
21289 26611 26612 28
21290 26611 26613 28
21291 26611 26614 28
21292 26611 26615 28
21293 26616 26617 28
21294 26616 26618 28
21295 26616 26619 28
21296 26616 26620 28
21297 26621 26622 28
21298 26621 26623 28
21299 26621 26624 28
21300 26621 26625 28
21301 26626 26627 28
21302 26626 26628 28
21303 26626 26629 28
21304 26626 26630 28
21305 26631 26632 28
21306 26631 26633 28
21307 26631 26634 28
21308 26631 26635 28
21309 26636 26637 28
21310 26636 26638 28
21311 26636 26639 28
21312 26636 26640 28
21313 26641 26642 28
21314 26641 26643 28
21315 26641 26644 28
21316 26641 26645 28
21317 26646 26647 28
21318 26646 26648 28
21319 26646 26649 28
21320 26646 26650 28
21321 26651 26652 28
21322 26651 26653 28
21323 26651 26654 28
21324 26651 26655 28
21325 26656 26657 28
21326 26656 26658 28
21327 26656 26659 28
21328 26656 26660 28
21329 26661 26662 28
21330 26661 26663 28
21331 26661 26664 28
21332 26661 26665 28
21333 26666 26667 28
21334 26666 26668 28
21335 26666 26669 28
21336 26666 26670 28
21337 26671 26672 28
21338 26671 26673 28
21339 26671 26674 28
21340 26671 26675 28
21341 26676 26677 28
21342 26676 26678 28
21343 26676 26679 28
21344 26676 26680 28
21345 26681 26682 28
21346 26681 26683 28
21347 26681 26684 28
21348 26681 26685 28
21349 26686 26687 28
21350 26686 26688 28
21351 26686 26689 28
21352 26686 26690 28
21353 26691 26692 28
21354 26691 26693 28
21355 26691 26694 28
21356 26691 26695 28
21357 26696 26697 28
21358 26696 26698 28
21359 26696 26699 28
21360 26696 26700 28
21361 26701 26702 28
21362 26701 26703 28
21363 26701 26704 28
21364 26701 26705 28
21365 26706 26707 28
21366 26706 26708 28
21367 26706 26709 28
21368 26706 26710 28
21369 26711 26712 28
21370 26711 26713 28
21371 26711 26714 28
21372 26711 26715 28
21373 26716 26717 28
21374 26716 26718 28
21375 26716 26719 28
21376 26716 26720 28
21377 26721 26722 28
21378 26721 26723 28
21379 26721 26724 28
21380 26721 26725 28
21381 26726 26727 28
21382 26726 26728 28
21383 26726 26729 28
21384 26726 26730 28
21385 26731 26732 28
21386 26731 26733 28
21387 26731 26734 28
21388 26731 26735 28
21389 26736 26737 28
21390 26736 26738 28
21391 26736 26739 28
21392 26736 26740 28
21393 26741 26742 28
21394 26741 26743 28
21395 26741 26744 28
21396 26741 26745 28
21397 26746 26747 28
21398 26746 26748 28
21399 26746 26749 28
21400 26746 26750 28
21401 26751 26752 28
21402 26751 26753 28
21403 26751 26754 28
21404 26751 26755 28
21405 26756 26757 28
21406 26756 26758 28
21407 26756 26759 28
21408 26756 26760 28
21409 26761 26762 28
21410 26761 26763 28
21411 26761 26764 28
21412 26761 26765 28
21413 26766 26767 28
21414 26766 26768 28
21415 26766 26769 28
21416 26766 26770 28
21417 26771 26772 28
21418 26771 26773 28
21419 26771 26774 28
21420 26771 26775 28
21421 26776 26777 28
21422 26776 26778 28
21423 26776 26779 28
21424 26776 26780 28
21425 26781 26782 28
21426 26781 26783 28
21427 26781 26784 28
21428 26781 26785 28
21429 26786 26787 28
21430 26786 26788 28
21431 26786 26789 28
21432 26786 26790 28
21433 26791 26792 28
21434 26791 26793 28
21435 26791 26794 28
21436 26791 26795 28
21437 26796 26797 28
21438 26796 26798 28
21439 26796 26799 28
21440 26796 26800 28
21441 26801 26802 28
21442 26801 26803 28
21443 26801 26804 28
21444 26801 26805 28
21445 26806 26807 28
21446 26806 26808 28
21447 26806 26809 28
21448 26806 26810 28
21449 26811 26812 28
21450 26811 26813 28
21451 26811 26814 28
21452 26811 26815 28
21453 26816 26817 28
21454 26816 26818 28
21455 26816 26819 28
21456 26816 26820 28
21457 26821 26822 28
21458 26821 26823 28
21459 26821 26824 28
21460 26821 26825 28
21461 26826 26827 28
21462 26826 26828 28
21463 26826 26829 28
21464 26826 26830 28
21465 26831 26832 28
21466 26831 26833 28
21467 26831 26834 28
21468 26831 26835 28
21469 26836 26837 28
21470 26836 26838 28
21471 26836 26839 28
21472 26836 26840 28
21473 26841 26842 28
21474 26841 26843 28
21475 26841 26844 28
21476 26841 26845 28
21477 26846 26847 28
21478 26846 26848 28
21479 26846 26849 28
21480 26846 26850 28
21481 26851 26852 28
21482 26851 26853 28
21483 26851 26854 28
21484 26851 26855 28
21485 26856 26857 28
21486 26856 26858 28
21487 26856 26859 28
21488 26856 26860 28
21489 26861 26862 28
21490 26861 26863 28
21491 26861 26864 28
21492 26861 26865 28
21493 26866 26867 28
21494 26866 26868 28
21495 26866 26869 28
21496 26866 26870 28
21497 26871 26872 28
21498 26871 26873 28
21499 26871 26874 28
21500 26871 26875 28
21501 26876 26877 28
21502 26876 26878 28
21503 26876 26879 28
21504 26876 26880 28
21505 26881 26882 28
21506 26881 26883 28
21507 26881 26884 28
21508 26881 26885 28
21509 26886 26887 28
21510 26886 26888 28
21511 26886 26889 28
21512 26886 26890 28
21513 26891 26892 28
21514 26891 26893 28
21515 26891 26894 28
21516 26891 26895 28
21517 26896 26897 28
21518 26896 26898 28
21519 26896 26899 28
21520 26896 26900 28
21521 26901 26902 28
21522 26901 26903 28
21523 26901 26904 28
21524 26901 26905 28
21525 26906 26907 28
21526 26906 26908 28
21527 26906 26909 28
21528 26906 26910 28
21529 26911 26912 28
21530 26911 26913 28
21531 26911 26914 28
21532 26911 26915 28
21533 26916 26917 28
21534 26916 26918 28
21535 26916 26919 28
21536 26916 26920 28
21537 26921 26922 28
21538 26921 26923 28
21539 26921 26924 28
21540 26921 26925 28
21541 26926 26927 28
21542 26926 26928 28
21543 26926 26929 28
21544 26926 26930 28
21545 26931 26932 28
21546 26931 26933 28
21547 26931 26934 28
21548 26931 26935 28
21549 26936 26937 28
21550 26936 26938 28
21551 26936 26939 28
21552 26936 26940 28
21553 26941 26942 28
21554 26941 26943 28
21555 26941 26944 28
21556 26941 26945 28
21557 26946 26947 28
21558 26946 26948 28
21559 26946 26949 28
21560 26946 26950 28
21561 26951 26952 28
21562 26951 26953 28
21563 26951 26954 28
21564 26951 26955 28
21565 26956 26957 28
21566 26956 26958 28
21567 26956 26959 28
21568 26956 26960 28
21569 26961 26962 28
21570 26961 26963 28
21571 26961 26964 28
21572 26961 26965 28
21573 26966 26967 28
21574 26966 26968 28
21575 26966 26969 28
21576 26966 26970 28
21577 26971 26972 28
21578 26971 26973 28
21579 26971 26974 28
21580 26971 26975 28
21581 26976 26977 28
21582 26976 26978 28
21583 26976 26979 28
21584 26976 26980 28
21585 26981 26982 28
21586 26981 26983 28
21587 26981 26984 28
21588 26981 26985 28
21589 26986 26987 28
21590 26986 26988 28
21591 26986 26989 28
21592 26986 26990 28
21593 26991 26992 28
21594 26991 26993 28
21595 26991 26994 28
21596 26991 26995 28
21597 26996 26997 28
21598 26996 26998 28
21599 26996 26999 28
21600 26996 27000 28
21601 27001 27002 28
21602 27001 27003 28
21603 27001 27004 28
21604 27001 27005 28
21605 27006 27007 28
21606 27006 27008 28
21607 27006 27009 28
21608 27006 27010 28
21609 27011 27012 28
21610 27011 27013 28
21611 27011 27014 28
21612 27011 27015 28
21613 27016 27017 28
21614 27016 27018 28
21615 27016 27019 28
21616 27016 27020 28
21617 27021 27022 28
21618 27021 27023 28
21619 27021 27024 28
21620 27021 27025 28
21621 27026 27027 28
21622 27026 27028 28
21623 27026 27029 28
21624 27026 27030 28
21625 27031 27032 28
21626 27031 27033 28
21627 27031 27034 28
21628 27031 27035 28
21629 27036 27037 28
21630 27036 27038 28
21631 27036 27039 28
21632 27036 27040 28
21633 27041 27042 28
21634 27041 27043 28
21635 27041 27044 28
21636 27041 27045 28
21637 27046 27047 28
21638 27046 27048 28
21639 27046 27049 28
21640 27046 27050 28
21641 27051 27052 28
21642 27051 27053 28
21643 27051 27054 28
21644 27051 27055 28
21645 27056 27057 28
21646 27056 27058 28
21647 27056 27059 28
21648 27056 27060 28
21649 27061 27062 28
21650 27061 27063 28
21651 27061 27064 28
21652 27061 27065 28
21653 27066 27067 28
21654 27066 27068 28
21655 27066 27069 28
21656 27066 27070 28
21657 27071 27072 28
21658 27071 27073 28
21659 27071 27074 28
21660 27071 27075 28
21661 27076 27077 28
21662 27076 27078 28
21663 27076 27079 28
21664 27076 27080 28
21665 27081 27082 28
21666 27081 27083 28
21667 27081 27084 28
21668 27081 27085 28
21669 27086 27087 28
21670 27086 27088 28
21671 27086 27089 28
21672 27086 27090 28
21673 27091 27092 28
21674 27091 27093 28
21675 27091 27094 28
21676 27091 27095 28
21677 27096 27097 28
21678 27096 27098 28
21679 27096 27099 28
21680 27096 27100 28
21681 27101 27102 28
21682 27101 27103 28
21683 27101 27104 28
21684 27101 27105 28
21685 27106 27107 28
21686 27106 27108 28
21687 27106 27109 28
21688 27106 27110 28
21689 27111 27112 28
21690 27111 27113 28
21691 27111 27114 28
21692 27111 27115 28
21693 27116 27117 28
21694 27116 27118 28
21695 27116 27119 28
21696 27116 27120 28
21697 27121 27122 28
21698 27121 27123 28
21699 27121 27124 28
21700 27121 27125 28
21701 27126 27127 28
21702 27126 27128 28
21703 27126 27129 28
21704 27126 27130 28
21705 27131 27132 28
21706 27131 27133 28
21707 27131 27134 28
21708 27131 27135 28
21709 27136 27137 28
21710 27136 27138 28
21711 27136 27139 28
21712 27136 27140 28
21713 27141 27142 28
21714 27141 27143 28
21715 27141 27144 28
21716 27141 27145 28
21717 27146 27147 28
21718 27146 27148 28
21719 27146 27149 28
21720 27146 27150 28
21721 27151 27152 28
21722 27151 27153 28
21723 27151 27154 28
21724 27151 27155 28
21725 27156 27157 28
21726 27156 27158 28
21727 27156 27159 28
21728 27156 27160 28
21729 27161 27162 28
21730 27161 27163 28
21731 27161 27164 28
21732 27161 27165 28
21733 27166 27167 28
21734 27166 27168 28
21735 27166 27169 28
21736 27166 27170 28
21737 27171 27172 28
21738 27171 27173 28
21739 27171 27174 28
21740 27171 27175 28
21741 27176 27177 28
21742 27176 27178 28
21743 27176 27179 28
21744 27176 27180 28
21745 27181 27182 28
21746 27181 27183 28
21747 27181 27184 28
21748 27181 27185 28
21749 27186 27187 28
21750 27186 27188 28
21751 27186 27189 28
21752 27186 27190 28
21753 27191 27192 28
21754 27191 27193 28
21755 27191 27194 28
21756 27191 27195 28
21757 27196 27197 28
21758 27196 27198 28
21759 27196 27199 28
21760 27196 27200 28
21761 27201 27202 28
21762 27201 27203 28
21763 27201 27204 28
21764 27201 27205 28
21765 27206 27207 28
21766 27206 27208 28
21767 27206 27209 28
21768 27206 27210 28
21769 27211 27212 28
21770 27211 27213 28
21771 27211 27214 28
21772 27211 27215 28
21773 27216 27217 28
21774 27216 27218 28
21775 27216 27219 28
21776 27216 27220 28
21777 27221 27222 28
21778 27221 27223 28
21779 27221 27224 28
21780 27221 27225 28
21781 27226 27227 28
21782 27226 27228 28
21783 27226 27229 28
21784 27226 27230 28
21785 27231 27232 28
21786 27231 27233 28
21787 27231 27234 28
21788 27231 27235 28
21789 27236 27237 28
21790 27236 27238 28
21791 27236 27239 28
21792 27236 27240 28
21793 27241 27242 28
21794 27241 27243 28
21795 27241 27244 28
21796 27241 27245 28
21797 27246 27247 28
21798 27246 27248 28
21799 27246 27249 28
21800 27246 27250 28
21801 27251 27252 28
21802 27251 27253 28
21803 27251 27254 28
21804 27251 27255 28
21805 27256 27257 28
21806 27256 27258 28
21807 27256 27259 28
21808 27256 27260 28
21809 27261 27262 28
21810 27261 27263 28
21811 27261 27264 28
21812 27261 27265 28
21813 27266 27267 28
21814 27266 27268 28
21815 27266 27269 28
21816 27266 27270 28
21817 27271 27272 28
21818 27271 27273 28
21819 27271 27274 28
21820 27271 27275 28
21821 27276 27277 28
21822 27276 27278 28
21823 27276 27279 28
21824 27276 27280 28
21825 27281 27282 28
21826 27281 27283 28
21827 27281 27284 28
21828 27281 27285 28
21829 27286 27287 28
21830 27286 27288 28
21831 27286 27289 28
21832 27286 27290 28
21833 27291 27292 28
21834 27291 27293 28
21835 27291 27294 28
21836 27291 27295 28
21837 27296 27297 28
21838 27296 27298 28
21839 27296 27299 28
21840 27296 27300 28
21841 27301 27302 28
21842 27301 27303 28
21843 27301 27304 28
21844 27301 27305 28
21845 27306 27307 28
21846 27306 27308 28
21847 27306 27309 28
21848 27306 27310 28
21849 27311 27312 28
21850 27311 27313 28
21851 27311 27314 28
21852 27311 27315 28
21853 27316 27317 28
21854 27316 27318 28
21855 27316 27319 28
21856 27316 27320 28
21857 27321 27322 28
21858 27321 27323 28
21859 27321 27324 28
21860 27321 27325 28
21861 27326 27327 28
21862 27326 27328 28
21863 27326 27329 28
21864 27326 27330 28
21865 27331 27332 28
21866 27331 27333 28
21867 27331 27334 28
21868 27331 27335 28
21869 27336 27337 28
21870 27336 27338 28
21871 27336 27339 28
21872 27336 27340 28
21873 27341 27342 28
21874 27341 27343 28
21875 27341 27344 28
21876 27341 27345 28
21877 27346 27347 28
21878 27346 27348 28
21879 27346 27349 28
21880 27346 27350 28
21881 27351 27352 28
21882 27351 27353 28
21883 27351 27354 28
21884 27351 27355 28
21885 27356 27357 28
21886 27356 27358 28
21887 27356 27359 28
21888 27356 27360 28
21889 27361 27362 28
21890 27361 27363 28
21891 27361 27364 28
21892 27361 27365 28
21893 27366 27367 28
21894 27366 27368 28
21895 27366 27369 28
21896 27366 27370 28
21897 27371 27372 28
21898 27371 27373 28
21899 27371 27374 28
21900 27371 27375 28
21901 27376 27377 28
21902 27376 27378 28
21903 27376 27379 28
21904 27376 27380 28
21905 27381 27382 28
21906 27381 27383 28
21907 27381 27384 28
21908 27381 27385 28
21909 27386 27387 28
21910 27386 27388 28
21911 27386 27389 28
21912 27386 27390 28
21913 27391 27392 28
21914 27391 27393 28
21915 27391 27394 28
21916 27391 27395 28
21917 27396 27397 28
21918 27396 27398 28
21919 27396 27399 28
21920 27396 27400 28
21921 27401 27402 28
21922 27401 27403 28
21923 27401 27404 28
21924 27401 27405 28
21925 27406 27407 28
21926 27406 27408 28
21927 27406 27409 28
21928 27406 27410 28
21929 27411 27412 28
21930 27411 27413 28
21931 27411 27414 28
21932 27411 27415 28
21933 27416 27417 28
21934 27416 27418 28
21935 27416 27419 28
21936 27416 27420 28
21937 27421 27422 28
21938 27421 27423 28
21939 27421 27424 28
21940 27421 27425 28
21941 27426 27427 28
21942 27426 27428 28
21943 27426 27429 28
21944 27426 27430 28
21945 27431 27432 28
21946 27431 27433 28
21947 27431 27434 28
21948 27431 27435 28
21949 27436 27437 28
21950 27436 27438 28
21951 27436 27439 28
21952 27436 27440 28
21953 27441 27442 28
21954 27441 27443 28
21955 27441 27444 28
21956 27441 27445 28
21957 27446 27447 28
21958 27446 27448 28
21959 27446 27449 28
21960 27446 27450 28
21961 27451 27452 28
21962 27451 27453 28
21963 27451 27454 28
21964 27451 27455 28
21965 27456 27457 28
21966 27456 27458 28
21967 27456 27459 28
21968 27456 27460 28
21969 27461 27462 28
21970 27461 27463 28
21971 27461 27464 28
21972 27461 27465 28
21973 27466 27467 28
21974 27466 27468 28
21975 27466 27469 28
21976 27466 27470 28
21977 27471 27472 28
21978 27471 27473 28
21979 27471 27474 28
21980 27471 27475 28
21981 27476 27477 28
21982 27476 27478 28
21983 27476 27479 28
21984 27476 27480 28
21985 27481 27482 28
21986 27481 27483 28
21987 27481 27484 28
21988 27481 27485 28
21989 27486 27487 28
21990 27486 27488 28
21991 27486 27489 28
21992 27486 27490 28
21993 27491 27492 28
21994 27491 27493 28
21995 27491 27494 28
21996 27491 27495 28
21997 27496 27497 28
21998 27496 27498 28
21999 27496 27499 28
22000 27496 27500 28
22001 27501 27502 28
22002 27501 27503 28
22003 27501 27504 28
22004 27501 27505 28
22005 27506 27507 28
22006 27506 27508 28
22007 27506 27509 28
22008 27506 27510 28
22009 27511 27512 28
22010 27511 27513 28
22011 27511 27514 28
22012 27511 27515 28
22013 27516 27517 28
22014 27516 27518 28
22015 27516 27519 28
22016 27516 27520 28
22017 27521 27522 28
22018 27521 27523 28
22019 27521 27524 28
22020 27521 27525 28
22021 27526 27527 28
22022 27526 27528 28
22023 27526 27529 28
22024 27526 27530 28
22025 27531 27532 28
22026 27531 27533 28
22027 27531 27534 28
22028 27531 27535 28
22029 27536 27537 28
22030 27536 27538 28
22031 27536 27539 28
22032 27536 27540 28
22033 27541 27542 28
22034 27541 27543 28
22035 27541 27544 28
22036 27541 27545 28
22037 27546 27547 28
22038 27546 27548 28
22039 27546 27549 28
22040 27546 27550 28
22041 27551 27552 28
22042 27551 27553 28
22043 27551 27554 28
22044 27551 27555 28
22045 27556 27557 28
22046 27556 27558 28
22047 27556 27559 28
22048 27556 27560 28
22049 27561 27562 28
22050 27561 27563 28
22051 27561 27564 28
22052 27561 27565 28
22053 27566 27567 28
22054 27566 27568 28
22055 27566 27569 28
22056 27566 27570 28
22057 27571 27572 28
22058 27571 27573 28
22059 27571 27574 28
22060 27571 27575 28
22061 27576 27577 28
22062 27576 27578 28
22063 27576 27579 28
22064 27576 27580 28
22065 27581 27582 28
22066 27581 27583 28
22067 27581 27584 28
22068 27581 27585 28
22069 27586 27587 28
22070 27586 27588 28
22071 27586 27589 28
22072 27586 27590 28
22073 27591 27592 28
22074 27591 27593 28
22075 27591 27594 28
22076 27591 27595 28
22077 27596 27597 28
22078 27596 27598 28
22079 27596 27599 28
22080 27596 27600 28
22081 27601 27602 28
22082 27601 27603 28
22083 27601 27604 28
22084 27601 27605 28
22085 27606 27607 28
22086 27606 27608 28
22087 27606 27609 28
22088 27606 27610 28
22089 27611 27612 28
22090 27611 27613 28
22091 27611 27614 28
22092 27611 27615 28
22093 27616 27617 28
22094 27616 27618 28
22095 27616 27619 28
22096 27616 27620 28
22097 27621 27622 28
22098 27621 27623 28
22099 27621 27624 28
22100 27621 27625 28
22101 27626 27627 28
22102 27626 27628 28
22103 27626 27629 28
22104 27626 27630 28
22105 27631 27632 28
22106 27631 27633 28
22107 27631 27634 28
22108 27631 27635 28
22109 27636 27637 28
22110 27636 27638 28
22111 27636 27639 28
22112 27636 27640 28
22113 27641 27642 28
22114 27641 27643 28
22115 27641 27644 28
22116 27641 27645 28
22117 27646 27647 28
22118 27646 27648 28
22119 27646 27649 28
22120 27646 27650 28
22121 27651 27652 28
22122 27651 27653 28
22123 27651 27654 28
22124 27651 27655 28
22125 27656 27657 28
22126 27656 27658 28
22127 27656 27659 28
22128 27656 27660 28
22129 27661 27662 28
22130 27661 27663 28
22131 27661 27664 28
22132 27661 27665 28
22133 27666 27667 28
22134 27666 27668 28
22135 27666 27669 28
22136 27666 27670 28
22137 27671 27672 28
22138 27671 27673 28
22139 27671 27674 28
22140 27671 27675 28
22141 27676 27677 28
22142 27676 27678 28
22143 27676 27679 28
22144 27676 27680 28
22145 27681 27682 28
22146 27681 27683 28
22147 27681 27684 28
22148 27681 27685 28
22149 27686 27687 28
22150 27686 27688 28
22151 27686 27689 28
22152 27686 27690 28
22153 27691 27692 28
22154 27691 27693 28
22155 27691 27694 28
22156 27691 27695 28
22157 27696 27697 28
22158 27696 27698 28
22159 27696 27699 28
22160 27696 27700 28
22161 27701 27702 28
22162 27701 27703 28
22163 27701 27704 28
22164 27701 27705 28
22165 27706 27707 28
22166 27706 27708 28
22167 27706 27709 28
22168 27706 27710 28
22169 27711 27712 28
22170 27711 27713 28
22171 27711 27714 28
22172 27711 27715 28
22173 27716 27717 28
22174 27716 27718 28
22175 27716 27719 28
22176 27716 27720 28
22177 27721 27722 28
22178 27721 27723 28
22179 27721 27724 28
22180 27721 27725 28
22181 27726 27727 28
22182 27726 27728 28
22183 27726 27729 28
22184 27726 27730 28
22185 27731 27732 28
22186 27731 27733 28
22187 27731 27734 28
22188 27731 27735 28
22189 27736 27737 28
22190 27736 27738 28
22191 27736 27739 28
22192 27736 27740 28
22193 27741 27742 28
22194 27741 27743 28
22195 27741 27744 28
22196 27741 27745 28
22197 27746 27747 28
22198 27746 27748 28
22199 27746 27749 28
22200 27746 27750 28
22201 27751 27752 28
22202 27751 27753 28
22203 27751 27754 28
22204 27751 27755 28
22205 27756 27757 28
22206 27756 27758 28
22207 27756 27759 28
22208 27756 27760 28
22209 27761 27762 28
22210 27761 27763 28
22211 27761 27764 28
22212 27761 27765 28
22213 27766 27767 28
22214 27766 27768 28
22215 27766 27769 28
22216 27766 27770 28
22217 27771 27772 28
22218 27771 27773 28
22219 27771 27774 28
22220 27771 27775 28
22221 27776 27777 28
22222 27776 27778 28
22223 27776 27779 28
22224 27776 27780 28
22225 27781 27782 28
22226 27781 27783 28
22227 27781 27784 28
22228 27781 27785 28
22229 27786 27787 28
22230 27786 27788 28
22231 27786 27789 28
22232 27786 27790 28
22233 27791 27792 28
22234 27791 27793 28
22235 27791 27794 28
22236 27791 27795 28
22237 27796 27797 28
22238 27796 27798 28
22239 27796 27799 28
22240 27796 27800 28
22241 27801 27802 28
22242 27801 27803 28
22243 27801 27804 28
22244 27801 27805 28
22245 27806 27807 28
22246 27806 27808 28
22247 27806 27809 28
22248 27806 27810 28
22249 27811 27812 28
22250 27811 27813 28
22251 27811 27814 28
22252 27811 27815 28
22253 27816 27817 28
22254 27816 27818 28
22255 27816 27819 28
22256 27816 27820 28
22257 27821 27822 28
22258 27821 27823 28
22259 27821 27824 28
22260 27821 27825 28
22261 27826 27827 28
22262 27826 27828 28
22263 27826 27829 28
22264 27826 27830 28
22265 27831 27832 28
22266 27831 27833 28
22267 27831 27834 28
22268 27831 27835 28
22269 27836 27837 28
22270 27836 27838 28
22271 27836 27839 28
22272 27836 27840 28
22273 27841 27842 28
22274 27841 27843 28
22275 27841 27844 28
22276 27841 27845 28
22277 27846 27847 28
22278 27846 27848 28
22279 27846 27849 28
22280 27846 27850 28
22281 27851 27852 28
22282 27851 27853 28
22283 27851 27854 28
22284 27851 27855 28
22285 27856 27857 28
22286 27856 27858 28
22287 27856 27859 28
22288 27856 27860 28
22289 27861 27862 28
22290 27861 27863 28
22291 27861 27864 28
22292 27861 27865 28
22293 27866 27867 28
22294 27866 27868 28
22295 27866 27869 28
22296 27866 27870 28
22297 27871 27872 28
22298 27871 27873 28
22299 27871 27874 28
22300 27871 27875 28
22301 27876 27877 28
22302 27876 27878 28
22303 27876 27879 28
22304 27876 27880 28
22305 27881 27882 28
22306 27881 27883 28
22307 27881 27884 28
22308 27881 27885 28
22309 27886 27887 28
22310 27886 27888 28
22311 27886 27889 28
22312 27886 27890 28
22313 27891 27892 28
22314 27891 27893 28
22315 27891 27894 28
22316 27891 27895 28
22317 27896 27897 28
22318 27896 27898 28
22319 27896 27899 28
22320 27896 27900 28
22321 27901 27902 28
22322 27901 27903 28
22323 27901 27904 28
22324 27901 27905 28
22325 27906 27907 28
22326 27906 27908 28
22327 27906 27909 28
22328 27906 27910 28
22329 27911 27912 28
22330 27911 27913 28
22331 27911 27914 28
22332 27911 27915 28
22333 27916 27917 28
22334 27916 27918 28
22335 27916 27919 28
22336 27916 27920 28
22337 27921 27922 28
22338 27921 27923 28
22339 27921 27924 28
22340 27921 27925 28
22341 27926 27927 28
22342 27926 27928 28
22343 27926 27929 28
22344 27926 27930 28
22345 27931 27932 28
22346 27931 27933 28
22347 27931 27934 28
22348 27931 27935 28
22349 27936 27937 28
22350 27936 27938 28
22351 27936 27939 28
22352 27936 27940 28
22353 27941 27942 28
22354 27941 27943 28
22355 27941 27944 28
22356 27941 27945 28
22357 27946 27947 28
22358 27946 27948 28
22359 27946 27949 28
22360 27946 27950 28
22361 27951 27952 28
22362 27951 27953 28
22363 27951 27954 28
22364 27951 27955 28
22365 27956 27957 28
22366 27956 27958 28
22367 27956 27959 28
22368 27956 27960 28
22369 27961 27962 28
22370 27961 27963 28
22371 27961 27964 28
22372 27961 27965 28
22373 27966 27967 28
22374 27966 27968 28
22375 27966 27969 28
22376 27966 27970 28
22377 27971 27972 28
22378 27971 27973 28
22379 27971 27974 28
22380 27971 27975 28
22381 27976 27977 28
22382 27976 27978 28
22383 27976 27979 28
22384 27976 27980 28
22385 27981 27982 28
22386 27981 27983 28
22387 27981 27984 28
22388 27981 27985 28
22389 27986 27987 28
22390 27986 27988 28
22391 27986 27989 28
22392 27986 27990 28
22393 27991 27992 28
22394 27991 27993 28
22395 27991 27994 28
22396 27991 27995 28
22397 27996 27997 28
22398 27996 27998 28
22399 27996 27999 28
22400 27996 28000 28
22401 28001 28002 28
22402 28001 28003 28
22403 28001 28004 28
22404 28001 28005 28
22405 28006 28007 28
22406 28006 28008 28
22407 28006 28009 28
22408 28006 28010 28
22409 28011 28012 28
22410 28011 28013 28
22411 28011 28014 28
22412 28011 28015 28
22413 28016 28017 28
22414 28016 28018 28
22415 28016 28019 28
22416 28016 28020 28
22417 28021 28022 28
22418 28021 28023 28
22419 28021 28024 28
22420 28021 28025 28
22421 28026 28027 28
22422 28026 28028 28
22423 28026 28029 28
22424 28026 28030 28
22425 28031 28032 28
22426 28031 28033 28
22427 28031 28034 28
22428 28031 28035 28
22429 28036 28037 28
22430 28036 28038 28
22431 28036 28039 28
22432 28036 28040 28
22433 28041 28042 28
22434 28041 28043 28
22435 28041 28044 28
22436 28041 28045 28
22437 28046 28047 28
22438 28046 28048 28
22439 28046 28049 28
22440 28046 28050 28
22441 28051 28052 28
22442 28051 28053 28
22443 28051 28054 28
22444 28051 28055 28
22445 28056 28057 28
22446 28056 28058 28
22447 28056 28059 28
22448 28056 28060 28
22449 28061 28062 28
22450 28061 28063 28
22451 28061 28064 28
22452 28061 28065 28
22453 28066 28067 28
22454 28066 28068 28
22455 28066 28069 28
22456 28066 28070 28
22457 28071 28072 28
22458 28071 28073 28
22459 28071 28074 28
22460 28071 28075 28
22461 28076 28077 28
22462 28076 28078 28
22463 28076 28079 28
22464 28076 28080 28
22465 28081 28082 28
22466 28081 28083 28
22467 28081 28084 28
22468 28081 28085 28
22469 28086 28087 28
22470 28086 28088 28
22471 28086 28089 28
22472 28086 28090 28
22473 28091 28092 28
22474 28091 28093 28
22475 28091 28094 28
22476 28091 28095 28
22477 28096 28097 28
22478 28096 28098 28
22479 28096 28099 28
22480 28096 28100 28
22481 28101 28102 28
22482 28101 28103 28
22483 28101 28104 28
22484 28101 28105 28
22485 28106 28107 28
22486 28106 28108 28
22487 28106 28109 28
22488 28106 28110 28
22489 28111 28112 28
22490 28111 28113 28
22491 28111 28114 28
22492 28111 28115 28
22493 28116 28117 28
22494 28116 28118 28
22495 28116 28119 28
22496 28116 28120 28
22497 28121 28122 28
22498 28121 28123 28
22499 28121 28124 28
22500 28121 28125 28
22501 28126 28127 28
22502 28126 28128 28
22503 28126 28129 28
22504 28126 28130 28
22505 28131 28132 28
22506 28131 28133 28
22507 28131 28134 28
22508 28131 28135 28
22509 28136 28137 28
22510 28136 28138 28
22511 28136 28139 28
22512 28136 28140 28
22513 28141 28142 28
22514 28141 28143 28
22515 28141 28144 28
22516 28141 28145 28
22517 28146 28147 28
22518 28146 28148 28
22519 28146 28149 28
22520 28146 28150 28
22521 28151 28152 28
22522 28151 28153 28
22523 28151 28154 28
22524 28151 28155 28
22525 28156 28157 28
22526 28156 28158 28
22527 28156 28159 28
22528 28156 28160 28
22529 28161 28162 28
22530 28161 28163 28
22531 28161 28164 28
22532 28161 28165 28
22533 28166 28167 28
22534 28166 28168 28
22535 28166 28169 28
22536 28166 28170 28
22537 28171 28172 28
22538 28171 28173 28
22539 28171 28174 28
22540 28171 28175 28
22541 28176 28177 28
22542 28176 28178 28
22543 28176 28179 28
22544 28176 28180 28
22545 28181 28182 28
22546 28181 28183 28
22547 28181 28184 28
22548 28181 28185 28
22549 28186 28187 28
22550 28186 28188 28
22551 28186 28189 28
22552 28186 28190 28
22553 28191 28192 28
22554 28191 28193 28
22555 28191 28194 28
22556 28191 28195 28
22557 28196 28197 28
22558 28196 28198 28
22559 28196 28199 28
22560 28196 28200 28
22561 28201 28202 28
22562 28201 28203 28
22563 28201 28204 28
22564 28201 28205 28
22565 28206 28207 28
22566 28206 28208 28
22567 28206 28209 28
22568 28206 28210 28
22569 28211 28212 28
22570 28211 28213 28
22571 28211 28214 28
22572 28211 28215 28
22573 28216 28217 28
22574 28216 28218 28
22575 28216 28219 28
22576 28216 28220 28
22577 28221 28222 28
22578 28221 28223 28
22579 28221 28224 28
22580 28221 28225 28
22581 28226 28227 28
22582 28226 28228 28
22583 28226 28229 28
22584 28226 28230 28
22585 28231 28232 28
22586 28231 28233 28
22587 28231 28234 28
22588 28231 28235 28
22589 28236 28237 28
22590 28236 28238 28
22591 28236 28239 28
22592 28236 28240 28
22593 28241 28242 28
22594 28241 28243 28
22595 28241 28244 28
22596 28241 28245 28
22597 28246 28247 28
22598 28246 28248 28
22599 28246 28249 28
22600 28246 28250 28
22601 28251 28252 28
22602 28251 28253 28
22603 28251 28254 28
22604 28251 28255 28
22605 28256 28257 28
22606 28256 28258 28
22607 28256 28259 28
22608 28256 28260 28
22609 28261 28262 28
22610 28261 28263 28
22611 28261 28264 28
22612 28261 28265 28
22613 28266 28267 28
22614 28266 28268 28
22615 28266 28269 28
22616 28266 28270 28
22617 28271 28272 28
22618 28271 28273 28
22619 28271 28274 28
22620 28271 28275 28
22621 28276 28277 28
22622 28276 28278 28
22623 28276 28279 28
22624 28276 28280 28
22625 28281 28282 28
22626 28281 28283 28
22627 28281 28284 28
22628 28281 28285 28
22629 28286 28287 28
22630 28286 28288 28
22631 28286 28289 28
22632 28286 28290 28
22633 28291 28292 28
22634 28291 28293 28
22635 28291 28294 28
22636 28291 28295 28
22637 28296 28297 28
22638 28296 28298 28
22639 28296 28299 28
22640 28296 28300 28
22641 28301 28302 28
22642 28301 28303 28
22643 28301 28304 28
22644 28301 28305 28
22645 28306 28307 28
22646 28306 28308 28
22647 28306 28309 28
22648 28306 28310 28
22649 28311 28312 28
22650 28311 28313 28
22651 28311 28314 28
22652 28311 28315 28
22653 28316 28317 28
22654 28316 28318 28
22655 28316 28319 28
22656 28316 28320 28
22657 28321 28322 28
22658 28321 28323 28
22659 28321 28324 28
22660 28321 28325 28
22661 28326 28327 28
22662 28326 28328 28
22663 28326 28329 28
22664 28326 28330 28
22665 28331 28332 28
22666 28331 28333 28
22667 28331 28334 28
22668 28331 28335 28
22669 28336 28337 28
22670 28336 28338 28
22671 28336 28339 28
22672 28336 28340 28
22673 28341 28342 28
22674 28341 28343 28
22675 28341 28344 28
22676 28341 28345 28
22677 28346 28347 28
22678 28346 28348 28
22679 28346 28349 28
22680 28346 28350 28
22681 28351 28352 28
22682 28351 28353 28
22683 28351 28354 28
22684 28351 28355 28
22685 28356 28357 28
22686 28356 28358 28
22687 28356 28359 28
22688 28356 28360 28
22689 28361 28362 28
22690 28361 28363 28
22691 28361 28364 28
22692 28361 28365 28
22693 28366 28367 28
22694 28366 28368 28
22695 28366 28369 28
22696 28366 28370 28
22697 28371 28372 28
22698 28371 28373 28
22699 28371 28374 28
22700 28371 28375 28
22701 28376 28377 28
22702 28376 28378 28
22703 28376 28379 28
22704 28376 28380 28
22705 28381 28382 28
22706 28381 28383 28
22707 28381 28384 28
22708 28381 28385 28
22709 28386 28387 28
22710 28386 28388 28
22711 28386 28389 28
22712 28386 28390 28
22713 28391 28392 28
22714 28391 28393 28
22715 28391 28394 28
22716 28391 28395 28
22717 28396 28397 28
22718 28396 28398 28
22719 28396 28399 28
22720 28396 28400 28
22721 28401 28402 28
22722 28401 28403 28
22723 28401 28404 28
22724 28401 28405 28
22725 28406 28407 28
22726 28406 28408 28
22727 28406 28409 28
22728 28406 28410 28
22729 28411 28412 28
22730 28411 28413 28
22731 28411 28414 28
22732 28411 28415 28
22733 28416 28417 28
22734 28416 28418 28
22735 28416 28419 28
22736 28416 28420 28
22737 28421 28422 28
22738 28421 28423 28
22739 28421 28424 28
22740 28421 28425 28
22741 28426 28427 28
22742 28426 28428 28
22743 28426 28429 28
22744 28426 28430 28
22745 28431 28432 28
22746 28431 28433 28
22747 28431 28434 28
22748 28431 28435 28
22749 28436 28437 28
22750 28436 28438 28
22751 28436 28439 28
22752 28436 28440 28
22753 28441 28442 28
22754 28441 28443 28
22755 28441 28444 28
22756 28441 28445 28
22757 28446 28447 28
22758 28446 28448 28
22759 28446 28449 28
22760 28446 28450 28
22761 28451 28452 28
22762 28451 28453 28
22763 28451 28454 28
22764 28451 28455 28
22765 28456 28457 28
22766 28456 28458 28
22767 28456 28459 28
22768 28456 28460 28
22769 28461 28462 28
22770 28461 28463 28
22771 28461 28464 28
22772 28461 28465 28
22773 28466 28467 28
22774 28466 28468 28
22775 28466 28469 28
22776 28466 28470 28
22777 28471 28472 28
22778 28471 28473 28
22779 28471 28474 28
22780 28471 28475 28
22781 28476 28477 28
22782 28476 28478 28
22783 28476 28479 28
22784 28476 28480 28
22785 28481 28482 28
22786 28481 28483 28
22787 28481 28484 28
22788 28481 28485 28
22789 28486 28487 28
22790 28486 28488 28
22791 28486 28489 28
22792 28486 28490 28
22793 28491 28492 28
22794 28491 28493 28
22795 28491 28494 28
22796 28491 28495 28
22797 28496 28497 28
22798 28496 28498 28
22799 28496 28499 28
22800 28496 28500 28
22801 28501 28502 28
22802 28501 28503 28
22803 28501 28504 28
22804 28501 28505 28
22805 28506 28507 28
22806 28506 28508 28
22807 28506 28509 28
22808 28506 28510 28
22809 28511 28512 28
22810 28511 28513 28
22811 28511 28514 28
22812 28511 28515 28
22813 28516 28517 28
22814 28516 28518 28
22815 28516 28519 28
22816 28516 28520 28
22817 28521 28522 28
22818 28521 28523 28
22819 28521 28524 28
22820 28521 28525 28
22821 28526 28527 28
22822 28526 28528 28
22823 28526 28529 28
22824 28526 28530 28
22825 28531 28532 28
22826 28531 28533 28
22827 28531 28534 28
22828 28531 28535 28
22829 28536 28537 28
22830 28536 28538 28
22831 28536 28539 28
22832 28536 28540 28
22833 28541 28542 28
22834 28541 28543 28
22835 28541 28544 28
22836 28541 28545 28
22837 28546 28547 28
22838 28546 28548 28
22839 28546 28549 28
22840 28546 28550 28
22841 28551 28552 28
22842 28551 28553 28
22843 28551 28554 28
22844 28551 28555 28
22845 28556 28557 28
22846 28556 28558 28
22847 28556 28559 28
22848 28556 28560 28
22849 28561 28562 28
22850 28561 28563 28
22851 28561 28564 28
22852 28561 28565 28
22853 28566 28567 28
22854 28566 28568 28
22855 28566 28569 28
22856 28566 28570 28
22857 28571 28572 28
22858 28571 28573 28
22859 28571 28574 28
22860 28571 28575 28
22861 28576 28577 28
22862 28576 28578 28
22863 28576 28579 28
22864 28576 28580 28
22865 28581 28582 28
22866 28581 28583 28
22867 28581 28584 28
22868 28581 28585 28
22869 28586 28587 28
22870 28586 28588 28
22871 28586 28589 28
22872 28586 28590 28
22873 28591 28592 28
22874 28591 28593 28
22875 28591 28594 28
22876 28591 28595 28
22877 28596 28597 28
22878 28596 28598 28
22879 28596 28599 28
22880 28596 28600 28
22881 28601 28602 28
22882 28601 28603 28
22883 28601 28604 28
22884 28601 28605 28
22885 28606 28607 28
22886 28606 28608 28
22887 28606 28609 28
22888 28606 28610 28
22889 28611 28612 28
22890 28611 28613 28
22891 28611 28614 28
22892 28611 28615 28
22893 28616 28617 28
22894 28616 28618 28
22895 28616 28619 28
22896 28616 28620 28
22897 28621 28622 28
22898 28621 28623 28
22899 28621 28624 28
22900 28621 28625 28
22901 28626 28627 28
22902 28626 28628 28
22903 28626 28629 28
22904 28626 28630 28
22905 28631 28632 28
22906 28631 28633 28
22907 28631 28634 28
22908 28631 28635 28
22909 28636 28637 28
22910 28636 28638 28
22911 28636 28639 28
22912 28636 28640 28
22913 28641 28642 28
22914 28641 28643 28
22915 28641 28644 28
22916 28641 28645 28
22917 28646 28647 28
22918 28646 28648 28
22919 28646 28649 28
22920 28646 28650 28
22921 28651 28652 28
22922 28651 28653 28
22923 28651 28654 28
22924 28651 28655 28
22925 28656 28657 28
22926 28656 28658 28
22927 28656 28659 28
22928 28656 28660 28
22929 28661 28662 28
22930 28661 28663 28
22931 28661 28664 28
22932 28661 28665 28
22933 28666 28667 28
22934 28666 28668 28
22935 28666 28669 28
22936 28666 28670 28
22937 28671 28672 28
22938 28671 28673 28
22939 28671 28674 28
22940 28671 28675 28
22941 28676 28677 28
22942 28676 28678 28
22943 28676 28679 28
22944 28676 28680 28
22945 28681 28682 28
22946 28681 28683 28
22947 28681 28684 28
22948 28681 28685 28
22949 28686 28687 28
22950 28686 28688 28
22951 28686 28689 28
22952 28686 28690 28
22953 28691 28692 28
22954 28691 28693 28
22955 28691 28694 28
22956 28691 28695 28
22957 28696 28697 28
22958 28696 28698 28
22959 28696 28699 28
22960 28696 28700 28
22961 28701 28702 28
22962 28701 28703 28
22963 28701 28704 28
22964 28701 28705 28
22965 28706 28707 28
22966 28706 28708 28
22967 28706 28709 28
22968 28706 28710 28
22969 28711 28712 28
22970 28711 28713 28
22971 28711 28714 28
22972 28711 28715 28
22973 28716 28717 28
22974 28716 28718 28
22975 28716 28719 28
22976 28716 28720 28
22977 28721 28722 28
22978 28721 28723 28
22979 28721 28724 28
22980 28721 28725 28
22981 28726 28727 28
22982 28726 28728 28
22983 28726 28729 28
22984 28726 28730 28
22985 28731 28732 28
22986 28731 28733 28
22987 28731 28734 28
22988 28731 28735 28
22989 28736 28737 28
22990 28736 28738 28
22991 28736 28739 28
22992 28736 28740 28
22993 28741 28742 28
22994 28741 28743 28
22995 28741 28744 28
22996 28741 28745 28
22997 28746 28747 28
22998 28746 28748 28
22999 28746 28749 28
23000 28746 28750 28
23001 28751 28752 28
23002 28751 28753 28
23003 28751 28754 28
23004 28751 28755 28
23005 28756 28757 28
23006 28756 28758 28
23007 28756 28759 28
23008 28756 28760 28
23009 28761 28762 28
23010 28761 28763 28
23011 28761 28764 28
23012 28761 28765 28
23013 28766 28767 28
23014 28766 28768 28
23015 28766 28769 28
23016 28766 28770 28
23017 28771 28772 28
23018 28771 28773 28
23019 28771 28774 28
23020 28771 28775 28
23021 28776 28777 28
23022 28776 28778 28
23023 28776 28779 28
23024 28776 28780 28
23025 28781 28782 28
23026 28781 28783 28
23027 28781 28784 28
23028 28781 28785 28
23029 28786 28787 28
23030 28786 28788 28
23031 28786 28789 28
23032 28786 28790 28
23033 28791 28792 28
23034 28791 28793 28
23035 28791 28794 28
23036 28791 28795 28
23037 28796 28797 28
23038 28796 28798 28
23039 28796 28799 28
23040 28796 28800 28
23041 28801 28802 28
23042 28801 28803 28
23043 28801 28804 28
23044 28801 28805 28
23045 28806 28807 28
23046 28806 28808 28
23047 28806 28809 28
23048 28806 28810 28
23049 28811 28812 28
23050 28811 28813 28
23051 28811 28814 28
23052 28811 28815 28
23053 28816 28817 28
23054 28816 28818 28
23055 28816 28819 28
23056 28816 28820 28
23057 28821 28822 28
23058 28821 28823 28
23059 28821 28824 28
23060 28821 28825 28
23061 28826 28827 28
23062 28826 28828 28
23063 28826 28829 28
23064 28826 28830 28
23065 28831 28832 28
23066 28831 28833 28
23067 28831 28834 28
23068 28831 28835 28
23069 28836 28837 28
23070 28836 28838 28
23071 28836 28839 28
23072 28836 28840 28
23073 28841 28842 28
23074 28841 28843 28
23075 28841 28844 28
23076 28841 28845 28
23077 28846 28847 28
23078 28846 28848 28
23079 28846 28849 28
23080 28846 28850 28
23081 28851 28852 28
23082 28851 28853 28
23083 28851 28854 28
23084 28851 28855 28
23085 28856 28857 28
23086 28856 28858 28
23087 28856 28859 28
23088 28856 28860 28
23089 28861 28862 28
23090 28861 28863 28
23091 28861 28864 28
23092 28861 28865 28
23093 28866 28867 28
23094 28866 28868 28
23095 28866 28869 28
23096 28866 28870 28
23097 28871 28872 28
23098 28871 28873 28
23099 28871 28874 28
23100 28871 28875 28
23101 28876 28877 28
23102 28876 28878 28
23103 28876 28879 28
23104 28876 28880 28
23105 28881 28882 28
23106 28881 28883 28
23107 28881 28884 28
23108 28881 28885 28
23109 28886 28887 28
23110 28886 28888 28
23111 28886 28889 28
23112 28886 28890 28
23113 28891 28892 28
23114 28891 28893 28
23115 28891 28894 28
23116 28891 28895 28
23117 28896 28897 28
23118 28896 28898 28
23119 28896 28899 28
23120 28896 28900 28
23121 28901 28902 28
23122 28901 28903 28
23123 28901 28904 28
23124 28901 28905 28
23125 28906 28907 28
23126 28906 28908 28
23127 28906 28909 28
23128 28906 28910 28
23129 28911 28912 28
23130 28911 28913 28
23131 28911 28914 28
23132 28911 28915 28
23133 28916 28917 28
23134 28916 28918 28
23135 28916 28919 28
23136 28916 28920 28
23137 28921 28922 28
23138 28921 28923 28
23139 28921 28924 28
23140 28921 28925 28
23141 28926 28927 28
23142 28926 28928 28
23143 28926 28929 28
23144 28926 28930 28
23145 28931 28932 28
23146 28931 28933 28
23147 28931 28934 28
23148 28931 28935 28
23149 28936 28937 28
23150 28936 28938 28
23151 28936 28939 28
23152 28936 28940 28
23153 28941 28942 28
23154 28941 28943 28
23155 28941 28944 28
23156 28941 28945 28
23157 28946 28947 28
23158 28946 28948 28
23159 28946 28949 28
23160 28946 28950 28
23161 28951 28952 28
23162 28951 28953 28
23163 28951 28954 28
23164 28951 28955 28
23165 28956 28957 28
23166 28956 28958 28
23167 28956 28959 28
23168 28956 28960 28
23169 28961 28962 28
23170 28961 28963 28
23171 28961 28964 28
23172 28961 28965 28
23173 28966 28967 28
23174 28966 28968 28
23175 28966 28969 28
23176 28966 28970 28
23177 28971 28972 28
23178 28971 28973 28
23179 28971 28974 28
23180 28971 28975 28
23181 28976 28977 28
23182 28976 28978 28
23183 28976 28979 28
23184 28976 28980 28
23185 28981 28982 28
23186 28981 28983 28
23187 28981 28984 28
23188 28981 28985 28
23189 28986 28987 28
23190 28986 28988 28
23191 28986 28989 28
23192 28986 28990 28
23193 28991 28992 28
23194 28991 28993 28
23195 28991 28994 28
23196 28991 28995 28
23197 28996 28997 28
23198 28996 28998 28
23199 28996 28999 28
23200 28996 29000 28
23201 29001 29002 28
23202 29001 29003 28
23203 29001 29004 28
23204 29001 29005 28
23205 29006 29007 28
23206 29006 29008 28
23207 29006 29009 28
23208 29006 29010 28
23209 29011 29012 28
23210 29011 29013 28
23211 29011 29014 28
23212 29011 29015 28
23213 29016 29017 28
23214 29016 29018 28
23215 29016 29019 28
23216 29016 29020 28
23217 29021 29022 28
23218 29021 29023 28
23219 29021 29024 28
23220 29021 29025 28
23221 29026 29027 28
23222 29026 29028 28
23223 29026 29029 28
23224 29026 29030 28
23225 29031 29032 28
23226 29031 29033 28
23227 29031 29034 28
23228 29031 29035 28
23229 29036 29037 28
23230 29036 29038 28
23231 29036 29039 28
23232 29036 29040 28
23233 29041 29042 28
23234 29041 29043 28
23235 29041 29044 28
23236 29041 29045 28
23237 29046 29047 28
23238 29046 29048 28
23239 29046 29049 28
23240 29046 29050 28
23241 29051 29052 28
23242 29051 29053 28
23243 29051 29054 28
23244 29051 29055 28
23245 29056 29057 28
23246 29056 29058 28
23247 29056 29059 28
23248 29056 29060 28
23249 29061 29062 28
23250 29061 29063 28
23251 29061 29064 28
23252 29061 29065 28
23253 29066 29067 28
23254 29066 29068 28
23255 29066 29069 28
23256 29066 29070 28
23257 29071 29072 28
23258 29071 29073 28
23259 29071 29074 28
23260 29071 29075 28
23261 29076 29077 28
23262 29076 29078 28
23263 29076 29079 28
23264 29076 29080 28
23265 29081 29082 28
23266 29081 29083 28
23267 29081 29084 28
23268 29081 29085 28
23269 29086 29087 28
23270 29086 29088 28
23271 29086 29089 28
23272 29086 29090 28
23273 29091 29092 28
23274 29091 29093 28
23275 29091 29094 28
23276 29091 29095 28
23277 29096 29097 28
23278 29096 29098 28
23279 29096 29099 28
23280 29096 29100 28
23281 29101 29102 28
23282 29101 29103 28
23283 29101 29104 28
23284 29101 29105 28
23285 29106 29107 28
23286 29106 29108 28
23287 29106 29109 28
23288 29106 29110 28
23289 29111 29112 28
23290 29111 29113 28
23291 29111 29114 28
23292 29111 29115 28
23293 29116 29117 28
23294 29116 29118 28
23295 29116 29119 28
23296 29116 29120 28
23297 29121 29122 28
23298 29121 29123 28
23299 29121 29124 28
23300 29121 29125 28
23301 29126 29127 28
23302 29126 29128 28
23303 29126 29129 28
23304 29126 29130 28
23305 29131 29132 28
23306 29131 29133 28
23307 29131 29134 28
23308 29131 29135 28
23309 29136 29137 28
23310 29136 29138 28
23311 29136 29139 28
23312 29136 29140 28
23313 29141 29142 28
23314 29141 29143 28
23315 29141 29144 28
23316 29141 29145 28
23317 29146 29147 28
23318 29146 29148 28
23319 29146 29149 28
23320 29146 29150 28
23321 29151 29152 28
23322 29151 29153 28
23323 29151 29154 28
23324 29151 29155 28
23325 29156 29157 28
23326 29156 29158 28
23327 29156 29159 28
23328 29156 29160 28
23329 29161 29162 28
23330 29161 29163 28
23331 29161 29164 28
23332 29161 29165 28
23333 29166 29167 28
23334 29166 29168 28
23335 29166 29169 28
23336 29166 29170 28
23337 29171 29172 28
23338 29171 29173 28
23339 29171 29174 28
23340 29171 29175 28
23341 29176 29177 28
23342 29176 29178 28
23343 29176 29179 28
23344 29176 29180 28
23345 29181 29182 28
23346 29181 29183 28
23347 29181 29184 28
23348 29181 29185 28
23349 29186 29187 28
23350 29186 29188 28
23351 29186 29189 28
23352 29186 29190 28
23353 29191 29192 28
23354 29191 29193 28
23355 29191 29194 28
23356 29191 29195 28
23357 29196 29197 28
23358 29196 29198 28
23359 29196 29199 28
23360 29196 29200 28
23361 29201 29202 28
23362 29201 29203 28
23363 29201 29204 28
23364 29201 29205 28
23365 29206 29207 28
23366 29206 29208 28
23367 29206 29209 28
23368 29206 29210 28
23369 29211 29212 28
23370 29211 29213 28
23371 29211 29214 28
23372 29211 29215 28
23373 29216 29217 28
23374 29216 29218 28
23375 29216 29219 28
23376 29216 29220 28
23377 29221 29222 28
23378 29221 29223 28
23379 29221 29224 28
23380 29221 29225 28
23381 29226 29227 28
23382 29226 29228 28
23383 29226 29229 28
23384 29226 29230 28
23385 29231 29232 28
23386 29231 29233 28
23387 29231 29234 28
23388 29231 29235 28
23389 29236 29237 28
23390 29236 29238 28
23391 29236 29239 28
23392 29236 29240 28
23393 29241 29242 28
23394 29241 29243 28
23395 29241 29244 28
23396 29241 29245 28
23397 29246 29247 28
23398 29246 29248 28
23399 29246 29249 28
23400 29246 29250 28
23401 29251 29252 28
23402 29251 29253 28
23403 29251 29254 28
23404 29251 29255 28
23405 29256 29257 28
23406 29256 29258 28
23407 29256 29259 28
23408 29256 29260 28
23409 29261 29262 28
23410 29261 29263 28
23411 29261 29264 28
23412 29261 29265 28
23413 29266 29267 28
23414 29266 29268 28
23415 29266 29269 28
23416 29266 29270 28
23417 29271 29272 28
23418 29271 29273 28
23419 29271 29274 28
23420 29271 29275 28
23421 29276 29277 28
23422 29276 29278 28
23423 29276 29279 28
23424 29276 29280 28
23425 29281 29282 28
23426 29281 29283 28
23427 29281 29284 28
23428 29281 29285 28
23429 29286 29287 28
23430 29286 29288 28
23431 29286 29289 28
23432 29286 29290 28
23433 29291 29292 28
23434 29291 29293 28
23435 29291 29294 28
23436 29291 29295 28
23437 29296 29297 28
23438 29296 29298 28
23439 29296 29299 28
23440 29296 29300 28
23441 29301 29302 28
23442 29301 29303 28
23443 29301 29304 28
23444 29301 29305 28
23445 29306 29307 28
23446 29306 29308 28
23447 29306 29309 28
23448 29306 29310 28
23449 29311 29312 28
23450 29311 29313 28
23451 29311 29314 28
23452 29311 29315 28
23453 29316 29317 28
23454 29316 29318 28
23455 29316 29319 28
23456 29316 29320 28
23457 29321 29322 28
23458 29321 29323 28
23459 29321 29324 28
23460 29321 29325 28
23461 29326 29327 28
23462 29326 29328 28
23463 29326 29329 28
23464 29326 29330 28
23465 29331 29332 28
23466 29331 29333 28
23467 29331 29334 28
23468 29331 29335 28
23469 29336 29337 28
23470 29336 29338 28
23471 29336 29339 28
23472 29336 29340 28
23473 29341 29342 28
23474 29341 29343 28
23475 29341 29344 28
23476 29341 29345 28
23477 29346 29347 28
23478 29346 29348 28
23479 29346 29349 28
23480 29346 29350 28
23481 29351 29352 28
23482 29351 29353 28
23483 29351 29354 28
23484 29351 29355 28
23485 29356 29357 28
23486 29356 29358 28
23487 29356 29359 28
23488 29356 29360 28
23489 29361 29362 28
23490 29361 29363 28
23491 29361 29364 28
23492 29361 29365 28
23493 29366 29367 28
23494 29366 29368 28
23495 29366 29369 28
23496 29366 29370 28
23497 29371 29372 28
23498 29371 29373 28
23499 29371 29374 28
23500 29371 29375 28
23501 29376 29377 28
23502 29376 29378 28
23503 29376 29379 28
23504 29376 29380 28
23505 29381 29382 28
23506 29381 29383 28
23507 29381 29384 28
23508 29381 29385 28
23509 29386 29387 28
23510 29386 29388 28
23511 29386 29389 28
23512 29386 29390 28
23513 29391 29392 28
23514 29391 29393 28
23515 29391 29394 28
23516 29391 29395 28
23517 29396 29397 28
23518 29396 29398 28
23519 29396 29399 28
23520 29396 29400 28
23521 29401 29402 28
23522 29401 29403 28
23523 29401 29404 28
23524 29401 29405 28
23525 29406 29407 28
23526 29406 29408 28
23527 29406 29409 28
23528 29406 29410 28
23529 29411 29412 28
23530 29411 29413 28
23531 29411 29414 28
23532 29411 29415 28
23533 29416 29417 28
23534 29416 29418 28
23535 29416 29419 28
23536 29416 29420 28
23537 29421 29422 28
23538 29421 29423 28
23539 29421 29424 28
23540 29421 29425 28
23541 29426 29427 28
23542 29426 29428 28
23543 29426 29429 28
23544 29426 29430 28
23545 29431 29432 28
23546 29431 29433 28
23547 29431 29434 28
23548 29431 29435 28
23549 29436 29437 28
23550 29436 29438 28
23551 29436 29439 28
23552 29436 29440 28
23553 29441 29442 28
23554 29441 29443 28
23555 29441 29444 28
23556 29441 29445 28
23557 29446 29447 28
23558 29446 29448 28
23559 29446 29449 28
23560 29446 29450 28
23561 29451 29452 28
23562 29451 29453 28
23563 29451 29454 28
23564 29451 29455 28
23565 29456 29457 28
23566 29456 29458 28
23567 29456 29459 28
23568 29456 29460 28
23569 29461 29462 28
23570 29461 29463 28
23571 29461 29464 28
23572 29461 29465 28
23573 29466 29467 28
23574 29466 29468 28
23575 29466 29469 28
23576 29466 29470 28
23577 29471 29472 28
23578 29471 29473 28
23579 29471 29474 28
23580 29471 29475 28
23581 29476 29477 28
23582 29476 29478 28
23583 29476 29479 28
23584 29476 29480 28
23585 29481 29482 28
23586 29481 29483 28
23587 29481 29484 28
23588 29481 29485 28
23589 29486 29487 28
23590 29486 29488 28
23591 29486 29489 28
23592 29486 29490 28
23593 29491 29492 28
23594 29491 29493 28
23595 29491 29494 28
23596 29491 29495 28
23597 29496 29497 28
23598 29496 29498 28
23599 29496 29499 28
23600 29496 29500 28
23601 29501 29502 28
23602 29501 29503 28
23603 29501 29504 28
23604 29501 29505 28
23605 29506 29507 28
23606 29506 29508 28
23607 29506 29509 28
23608 29506 29510 28
23609 29511 29512 28
23610 29511 29513 28
23611 29511 29514 28
23612 29511 29515 28
23613 29516 29517 28
23614 29516 29518 28
23615 29516 29519 28
23616 29516 29520 28
23617 29521 29522 28
23618 29521 29523 28
23619 29521 29524 28
23620 29521 29525 28
23621 29526 29527 28
23622 29526 29528 28
23623 29526 29529 28
23624 29526 29530 28
23625 29531 29532 28
23626 29531 29533 28
23627 29531 29534 28
23628 29531 29535 28
23629 29536 29537 28
23630 29536 29538 28
23631 29536 29539 28
23632 29536 29540 28
23633 29541 29542 28
23634 29541 29543 28
23635 29541 29544 28
23636 29541 29545 28
23637 29546 29547 28
23638 29546 29548 28
23639 29546 29549 28
23640 29546 29550 28
23641 29551 29552 28
23642 29551 29553 28
23643 29551 29554 28
23644 29551 29555 28
23645 29556 29557 28
23646 29556 29558 28
23647 29556 29559 28
23648 29556 29560 28
23649 29561 29562 28
23650 29561 29563 28
23651 29561 29564 28
23652 29561 29565 28
23653 29566 29567 28
23654 29566 29568 28
23655 29566 29569 28
23656 29566 29570 28
23657 29571 29572 28
23658 29571 29573 28
23659 29571 29574 28
23660 29571 29575 28
23661 29576 29577 28
23662 29576 29578 28
23663 29576 29579 28
23664 29576 29580 28
23665 29581 29582 28
23666 29581 29583 28
23667 29581 29584 28
23668 29581 29585 28
23669 29586 29587 28
23670 29586 29588 28
23671 29586 29589 28
23672 29586 29590 28
23673 29591 29592 28
23674 29591 29593 28
23675 29591 29594 28
23676 29591 29595 28
23677 29596 29597 28
23678 29596 29598 28
23679 29596 29599 28
23680 29596 29600 28
23681 29601 29602 28
23682 29601 29603 28
23683 29601 29604 28
23684 29601 29605 28
23685 29606 29607 28
23686 29606 29608 28
23687 29606 29609 28
23688 29606 29610 28
23689 29611 29612 28
23690 29611 29613 28
23691 29611 29614 28
23692 29611 29615 28
23693 29616 29617 28
23694 29616 29618 28
23695 29616 29619 28
23696 29616 29620 28
23697 29621 29622 28
23698 29621 29623 28
23699 29621 29624 28
23700 29621 29625 28
23701 29626 29627 28
23702 29626 29628 28
23703 29626 29629 28
23704 29626 29630 28
23705 29631 29632 28
23706 29631 29633 28
23707 29631 29634 28
23708 29631 29635 28
23709 29636 29637 28
23710 29636 29638 28
23711 29636 29639 28
23712 29636 29640 28
23713 29641 29642 28
23714 29641 29643 28
23715 29641 29644 28
23716 29641 29645 28
23717 29646 29647 28
23718 29646 29648 28
23719 29646 29649 28
23720 29646 29650 28
23721 29651 29652 28
23722 29651 29653 28
23723 29651 29654 28
23724 29651 29655 28
23725 29656 29657 28
23726 29656 29658 28
23727 29656 29659 28
23728 29656 29660 28
23729 29661 29662 28
23730 29661 29663 28
23731 29661 29664 28
23732 29661 29665 28
23733 29666 29667 28
23734 29666 29668 28
23735 29666 29669 28
23736 29666 29670 28
23737 29671 29672 28
23738 29671 29673 28
23739 29671 29674 28
23740 29671 29675 28
23741 29676 29677 28
23742 29676 29678 28
23743 29676 29679 28
23744 29676 29680 28
23745 29681 29682 28
23746 29681 29683 28
23747 29681 29684 28
23748 29681 29685 28
23749 29686 29687 28
23750 29686 29688 28
23751 29686 29689 28
23752 29686 29690 28
23753 29691 29692 28
23754 29691 29693 28
23755 29691 29694 28
23756 29691 29695 28
23757 29696 29697 28
23758 29696 29698 28
23759 29696 29699 28
23760 29696 29700 28
23761 29701 29702 28
23762 29701 29703 28
23763 29701 29704 28
23764 29701 29705 28
23765 29706 29707 28
23766 29706 29708 28
23767 29706 29709 28
23768 29706 29710 28
23769 29711 29712 28
23770 29711 29713 28
23771 29711 29714 28
23772 29711 29715 28
23773 29716 29717 28
23774 29716 29718 28
23775 29716 29719 28
23776 29716 29720 28
23777 29721 29722 28
23778 29721 29723 28
23779 29721 29724 28
23780 29721 29725 28
23781 29726 29727 28
23782 29726 29728 28
23783 29726 29729 28
23784 29726 29730 28
23785 29731 29732 28
23786 29731 29733 28
23787 29731 29734 28
23788 29731 29735 28
23789 29736 29737 28
23790 29736 29738 28
23791 29736 29739 28
23792 29736 29740 28
23793 29741 29742 28
23794 29741 29743 28
23795 29741 29744 28
23796 29741 29745 28
23797 29746 29747 28
23798 29746 29748 28
23799 29746 29749 28
23800 29746 29750 28
23801 29751 29752 28
23802 29751 29753 28
23803 29751 29754 28
23804 29751 29755 28
23805 29756 29757 28
23806 29756 29758 28
23807 29756 29759 28
23808 29756 29760 28
23809 29761 29762 28
23810 29761 29763 28
23811 29761 29764 28
23812 29761 29765 28
23813 29766 29767 28
23814 29766 29768 28
23815 29766 29769 28
23816 29766 29770 28
23817 29771 29772 28
23818 29771 29773 28
23819 29771 29774 28
23820 29771 29775 28
23821 29776 29777 28
23822 29776 29778 28
23823 29776 29779 28
23824 29776 29780 28
23825 29781 29782 28
23826 29781 29783 28
23827 29781 29784 28
23828 29781 29785 28
23829 29786 29787 28
23830 29786 29788 28
23831 29786 29789 28
23832 29786 29790 28
23833 29791 29792 28
23834 29791 29793 28
23835 29791 29794 28
23836 29791 29795 28
23837 29796 29797 28
23838 29796 29798 28
23839 29796 29799 28
23840 29796 29800 28
23841 29801 29802 28
23842 29801 29803 28
23843 29801 29804 28
23844 29801 29805 28
23845 29806 29807 28
23846 29806 29808 28
23847 29806 29809 28
23848 29806 29810 28
23849 29811 29812 28
23850 29811 29813 28
23851 29811 29814 28
23852 29811 29815 28
23853 29816 29817 28
23854 29816 29818 28
23855 29816 29819 28
23856 29816 29820 28
23857 29821 29822 28
23858 29821 29823 28
23859 29821 29824 28
23860 29821 29825 28
23861 29826 29827 28
23862 29826 29828 28
23863 29826 29829 28
23864 29826 29830 28
23865 29831 29832 28
23866 29831 29833 28
23867 29831 29834 28
23868 29831 29835 28
23869 29836 29837 28
23870 29836 29838 28
23871 29836 29839 28
23872 29836 29840 28
23873 29841 29842 28
23874 29841 29843 28
23875 29841 29844 28
23876 29841 29845 28
23877 29846 29847 28
23878 29846 29848 28
23879 29846 29849 28
23880 29846 29850 28
23881 29851 29852 28
23882 29851 29853 28
23883 29851 29854 28
23884 29851 29855 28
23885 29856 29857 28
23886 29856 29858 28
23887 29856 29859 28
23888 29856 29860 28
23889 29861 29862 28
23890 29861 29863 28
23891 29861 29864 28
23892 29861 29865 28
23893 29866 29867 28
23894 29866 29868 28
23895 29866 29869 28
23896 29866 29870 28
23897 29871 29872 28
23898 29871 29873 28
23899 29871 29874 28
23900 29871 29875 28
23901 29876 29877 28
23902 29876 29878 28
23903 29876 29879 28
23904 29876 29880 28
23905 29881 29882 28
23906 29881 29883 28
23907 29881 29884 28
23908 29881 29885 28
23909 29886 29887 28
23910 29886 29888 28
23911 29886 29889 28
23912 29886 29890 28
23913 29891 29892 28
23914 29891 29893 28
23915 29891 29894 28
23916 29891 29895 28
23917 29896 29897 28
23918 29896 29898 28
23919 29896 29899 28
23920 29896 29900 28
23921 29901 29902 28
23922 29901 29903 28
23923 29901 29904 28
23924 29901 29905 28
23925 29906 29907 28
23926 29906 29908 28
23927 29906 29909 28
23928 29906 29910 28
23929 29911 29912 28
23930 29911 29913 28
23931 29911 29914 28
23932 29911 29915 28
23933 29916 29917 28
23934 29916 29918 28
23935 29916 29919 28
23936 29916 29920 28
23937 29921 29922 28
23938 29921 29923 28
23939 29921 29924 28
23940 29921 29925 28
23941 29926 29927 28
23942 29926 29928 28
23943 29926 29929 28
23944 29926 29930 28
23945 29931 29932 28
23946 29931 29933 28
23947 29931 29934 28
23948 29931 29935 28
23949 29936 29937 28
23950 29936 29938 28
23951 29936 29939 28
23952 29936 29940 28
23953 29941 29942 28
23954 29941 29943 28
23955 29941 29944 28
23956 29941 29945 28
23957 29946 29947 28
23958 29946 29948 28
23959 29946 29949 28
23960 29946 29950 28
23961 29951 29952 28
23962 29951 29953 28
23963 29951 29954 28
23964 29951 29955 28
23965 29956 29957 28
23966 29956 29958 28
23967 29956 29959 28
23968 29956 29960 28
23969 29961 29962 28
23970 29961 29963 28
23971 29961 29964 28
23972 29961 29965 28
23973 29966 29967 28
23974 29966 29968 28
23975 29966 29969 28
23976 29966 29970 28
23977 29971 29972 28
23978 29971 29973 28
23979 29971 29974 28
23980 29971 29975 28
23981 29976 29977 28
23982 29976 29978 28
23983 29976 29979 28
23984 29976 29980 28
23985 29981 29982 28
23986 29981 29983 28
23987 29981 29984 28
23988 29981 29985 28
23989 29986 29987 28
23990 29986 29988 28
23991 29986 29989 28
23992 29986 29990 28
23993 29991 29992 28
23994 29991 29993 28
23995 29991 29994 28
23996 29991 29995 28
23997 29996 29997 28
23998 29996 29998 28
23999 29996 29999 28
24000 29996 30000 28
24001 30001 30002 28
24002 30001 30003 28
24003 30001 30004 28
24004 30001 30005 28
24005 30006 30007 28
24006 30006 30008 28
24007 30006 30009 28
24008 30006 30010 28
24009 30011 30012 28
24010 30011 30013 28
24011 30011 30014 28
24012 30011 30015 28
24013 30016 30017 28
24014 30016 30018 28
24015 30016 30019 28
24016 30016 30020 28
24017 30021 30022 28
24018 30021 30023 28
24019 30021 30024 28
24020 30021 30025 28
24021 30026 30027 28
24022 30026 30028 28
24023 30026 30029 28
24024 30026 30030 28
24025 30031 30032 28
24026 30031 30033 28
24027 30031 30034 28
24028 30031 30035 28
24029 30036 30037 28
24030 30036 30038 28
24031 30036 30039 28
24032 30036 30040 28
24033 30041 30042 28
24034 30041 30043 28
24035 30041 30044 28
24036 30041 30045 28
24037 30046 30047 28
24038 30046 30048 28
24039 30046 30049 28
24040 30046 30050 28
24041 30051 30052 28
24042 30051 30053 28
24043 30051 30054 28
24044 30051 30055 28
24045 30056 30057 28
24046 30056 30058 28
24047 30056 30059 28
24048 30056 30060 28
24049 30061 30062 28
24050 30061 30063 28
24051 30061 30064 28
24052 30061 30065 28
24053 30066 30067 28
24054 30066 30068 28
24055 30066 30069 28
24056 30066 30070 28
24057 30071 30072 28
24058 30071 30073 28
24059 30071 30074 28
24060 30071 30075 28
24061 30076 30077 28
24062 30076 30078 28
24063 30076 30079 28
24064 30076 30080 28
24065 30081 30082 28
24066 30081 30083 28
24067 30081 30084 28
24068 30081 30085 28
24069 30086 30087 28
24070 30086 30088 28
24071 30086 30089 28
24072 30086 30090 28
24073 30091 30092 28
24074 30091 30093 28
24075 30091 30094 28
24076 30091 30095 28
24077 30096 30097 28
24078 30096 30098 28
24079 30096 30099 28
24080 30096 30100 28
24081 30101 30102 28
24082 30101 30103 28
24083 30101 30104 28
24084 30101 30105 28
24085 30106 30107 28
24086 30106 30108 28
24087 30106 30109 28
24088 30106 30110 28
24089 30111 30112 28
24090 30111 30113 28
24091 30111 30114 28
24092 30111 30115 28
24093 30116 30117 28
24094 30116 30118 28
24095 30116 30119 28
24096 30116 30120 28
24097 30121 30122 28
24098 30121 30123 28
24099 30121 30124 28
24100 30121 30125 28
24101 30126 30127 28
24102 30126 30128 28
24103 30126 30129 28
24104 30126 30130 28
24105 30131 30132 28
24106 30131 30133 28
24107 30131 30134 28
24108 30131 30135 28
24109 30136 30137 28
24110 30136 30138 28
24111 30136 30139 28
24112 30136 30140 28
24113 30141 30142 28
24114 30141 30143 28
24115 30141 30144 28
24116 30141 30145 28
24117 30146 30147 28
24118 30146 30148 28
24119 30146 30149 28
24120 30146 30150 28
24121 30151 30152 28
24122 30151 30153 28
24123 30151 30154 28
24124 30151 30155 28
24125 30156 30157 28
24126 30156 30158 28
24127 30156 30159 28
24128 30156 30160 28
24129 30161 30162 28
24130 30161 30163 28
24131 30161 30164 28
24132 30161 30165 28
24133 30166 30167 28
24134 30166 30168 28
24135 30166 30169 28
24136 30166 30170 28
24137 30171 30172 28
24138 30171 30173 28
24139 30171 30174 28
24140 30171 30175 28
24141 30176 30177 28
24142 30176 30178 28
24143 30176 30179 28
24144 30176 30180 28
24145 30181 30182 28
24146 30181 30183 28
24147 30181 30184 28
24148 30181 30185 28
24149 30186 30187 28
24150 30186 30188 28
24151 30186 30189 28
24152 30186 30190 28
24153 30191 30192 28
24154 30191 30193 28
24155 30191 30194 28
24156 30191 30195 28
24157 30196 30197 28
24158 30196 30198 28
24159 30196 30199 28
24160 30196 30200 28
24161 30201 30202 28
24162 30201 30203 28
24163 30201 30204 28
24164 30201 30205 28
24165 30206 30207 28
24166 30206 30208 28
24167 30206 30209 28
24168 30206 30210 28
24169 30211 30212 28
24170 30211 30213 28
24171 30211 30214 28
24172 30211 30215 28
24173 30216 30217 28
24174 30216 30218 28
24175 30216 30219 28
24176 30216 30220 28
24177 30221 30222 28
24178 30221 30223 28
24179 30221 30224 28
24180 30221 30225 28
24181 30226 30227 28
24182 30226 30228 28
24183 30226 30229 28
24184 30226 30230 28
24185 30231 30232 28
24186 30231 30233 28
24187 30231 30234 28
24188 30231 30235 28
24189 30236 30237 28
24190 30236 30238 28
24191 30236 30239 28
24192 30236 30240 28
24193 30241 30242 28
24194 30241 30243 28
24195 30241 30244 28
24196 30241 30245 28
24197 30246 30247 28
24198 30246 30248 28
24199 30246 30249 28
24200 30246 30250 28
24201 30251 30252 28
24202 30251 30253 28
24203 30251 30254 28
24204 30251 30255 28
24205 30256 30257 28
24206 30256 30258 28
24207 30256 30259 28
24208 30256 30260 28
24209 30261 30262 28
24210 30261 30263 28
24211 30261 30264 28
24212 30261 30265 28
24213 30266 30267 28
24214 30266 30268 28
24215 30266 30269 28
24216 30266 30270 28
24217 30271 30272 28
24218 30271 30273 28
24219 30271 30274 28
24220 30271 30275 28
24221 30276 30277 28
24222 30276 30278 28
24223 30276 30279 28
24224 30276 30280 28
24225 30281 30282 28
24226 30281 30283 28
24227 30281 30284 28
24228 30281 30285 28
24229 30286 30287 28
24230 30286 30288 28
24231 30286 30289 28
24232 30286 30290 28
24233 30291 30292 28
24234 30291 30293 28
24235 30291 30294 28
24236 30291 30295 28
24237 30296 30297 28
24238 30296 30298 28
24239 30296 30299 28
24240 30296 30300 28
24241 30301 30302 28
24242 30301 30303 28
24243 30301 30304 28
24244 30301 30305 28
24245 30306 30307 28
24246 30306 30308 28
24247 30306 30309 28
24248 30306 30310 28
24249 30311 30312 28
24250 30311 30313 28
24251 30311 30314 28
24252 30311 30315 28
24253 30316 30317 28
24254 30316 30318 28
24255 30316 30319 28
24256 30316 30320 28
24257 30321 30322 28
24258 30321 30323 28
24259 30321 30324 28
24260 30321 30325 28
24261 30326 30327 28
24262 30326 30328 28
24263 30326 30329 28
24264 30326 30330 28
24265 30331 30332 28
24266 30331 30333 28
24267 30331 30334 28
24268 30331 30335 28
24269 30336 30337 28
24270 30336 30338 28
24271 30336 30339 28
24272 30336 30340 28
24273 30341 30342 28
24274 30341 30343 28
24275 30341 30344 28
24276 30341 30345 28
24277 30346 30347 28
24278 30346 30348 28
24279 30346 30349 28
24280 30346 30350 28
24281 30351 30352 28
24282 30351 30353 28
24283 30351 30354 28
24284 30351 30355 28
24285 30356 30357 28
24286 30356 30358 28
24287 30356 30359 28
24288 30356 30360 28
24289 30361 30362 28
24290 30361 30363 28
24291 30361 30364 28
24292 30361 30365 28
24293 30366 30367 28
24294 30366 30368 28
24295 30366 30369 28
24296 30366 30370 28
24297 30371 30372 28
24298 30371 30373 28
24299 30371 30374 28
24300 30371 30375 28
24301 30376 30377 28
24302 30376 30378 28
24303 30376 30379 28
24304 30376 30380 28
24305 30381 30382 28
24306 30381 30383 28
24307 30381 30384 28
24308 30381 30385 28
24309 30386 30387 28
24310 30386 30388 28
24311 30386 30389 28
24312 30386 30390 28
24313 30391 30392 28
24314 30391 30393 28
24315 30391 30394 28
24316 30391 30395 28
24317 30396 30397 28
24318 30396 30398 28
24319 30396 30399 28
24320 30396 30400 28
24321 30401 30402 28
24322 30401 30403 28
24323 30401 30404 28
24324 30401 30405 28
24325 30406 30407 28
24326 30406 30408 28
24327 30406 30409 28
24328 30406 30410 28
24329 30411 30412 28
24330 30411 30413 28
24331 30411 30414 28
24332 30411 30415 28
24333 30416 30417 28
24334 30416 30418 28
24335 30416 30419 28
24336 30416 30420 28
24337 30421 30422 28
24338 30421 30423 28
24339 30421 30424 28
24340 30421 30425 28
24341 30426 30427 28
24342 30426 30428 28
24343 30426 30429 28
24344 30426 30430 28
24345 30431 30432 28
24346 30431 30433 28
24347 30431 30434 28
24348 30431 30435 28
24349 30436 30437 28
24350 30436 30438 28
24351 30436 30439 28
24352 30436 30440 28
24353 30441 30442 28
24354 30441 30443 28
24355 30441 30444 28
24356 30441 30445 28
24357 30446 30447 28
24358 30446 30448 28
24359 30446 30449 28
24360 30446 30450 28
24361 30451 30452 28
24362 30451 30453 28
24363 30451 30454 28
24364 30451 30455 28
24365 30456 30457 28
24366 30456 30458 28
24367 30456 30459 28
24368 30456 30460 28
24369 30461 30462 28
24370 30461 30463 28
24371 30461 30464 28
24372 30461 30465 28
24373 30466 30467 28
24374 30466 30468 28
24375 30466 30469 28
24376 30466 30470 28
24377 30471 30472 28
24378 30471 30473 28
24379 30471 30474 28
24380 30471 30475 28
24381 30476 30477 28
24382 30476 30478 28
24383 30476 30479 28
24384 30476 30480 28
24385 30481 30482 28
24386 30481 30483 28
24387 30481 30484 28
24388 30481 30485 28
24389 30486 30487 28
24390 30486 30488 28
24391 30486 30489 28
24392 30486 30490 28
24393 30491 30492 28
24394 30491 30493 28
24395 30491 30494 28
24396 30491 30495 28
24397 30496 30497 28
24398 30496 30498 28
24399 30496 30499 28
24400 30496 30500 28
24401 30501 30502 28
24402 30501 30503 28
24403 30501 30504 28
24404 30501 30505 28
24405 30506 30507 28
24406 30506 30508 28
24407 30506 30509 28
24408 30506 30510 28
24409 30511 30512 28
24410 30511 30513 28
24411 30511 30514 28
24412 30511 30515 28
24413 30516 30517 28
24414 30516 30518 28
24415 30516 30519 28
24416 30516 30520 28
24417 30521 30522 28
24418 30521 30523 28
24419 30521 30524 28
24420 30521 30525 28
24421 30526 30527 28
24422 30526 30528 28
24423 30526 30529 28
24424 30526 30530 28
24425 30531 30532 28
24426 30531 30533 28
24427 30531 30534 28
24428 30531 30535 28
24429 30536 30537 28
24430 30536 30538 28
24431 30536 30539 28
24432 30536 30540 28
24433 30541 30542 28
24434 30541 30543 28
24435 30541 30544 28
24436 30541 30545 28
24437 30546 30547 28
24438 30546 30548 28
24439 30546 30549 28
24440 30546 30550 28
24441 30551 30552 28
24442 30551 30553 28
24443 30551 30554 28
24444 30551 30555 28
24445 30556 30557 28
24446 30556 30558 28
24447 30556 30559 28
24448 30556 30560 28
24449 30561 30562 28
24450 30561 30563 28
24451 30561 30564 28
24452 30561 30565 28
24453 30566 30567 28
24454 30566 30568 28
24455 30566 30569 28
24456 30566 30570 28
24457 30571 30572 28
24458 30571 30573 28
24459 30571 30574 28
24460 30571 30575 28
24461 30576 30577 28
24462 30576 30578 28
24463 30576 30579 28
24464 30576 30580 28
24465 30581 30582 28
24466 30581 30583 28
24467 30581 30584 28
24468 30581 30585 28
24469 30586 30587 28
24470 30586 30588 28
24471 30586 30589 28
24472 30586 30590 28
24473 30591 30592 28
24474 30591 30593 28
24475 30591 30594 28
24476 30591 30595 28
24477 30596 30597 28
24478 30596 30598 28
24479 30596 30599 28
24480 30596 30600 28
24481 30601 30602 28
24482 30601 30603 28
24483 30601 30604 28
24484 30601 30605 28
24485 30606 30607 28
24486 30606 30608 28
24487 30606 30609 28
24488 30606 30610 28
24489 30611 30612 28
24490 30611 30613 28
24491 30611 30614 28
24492 30611 30615 28
24493 30616 30617 28
24494 30616 30618 28
24495 30616 30619 28
24496 30616 30620 28
24497 30621 30622 28
24498 30621 30623 28
24499 30621 30624 28
24500 30621 30625 28
24501 30626 30627 28
24502 30626 30628 28
24503 30626 30629 28
24504 30626 30630 28
24505 30631 30632 28
24506 30631 30633 28
24507 30631 30634 28
24508 30631 30635 28
24509 30636 30637 28
24510 30636 30638 28
24511 30636 30639 28
24512 30636 30640 28
24513 30641 30642 28
24514 30641 30643 28
24515 30641 30644 28
24516 30641 30645 28
24517 30646 30647 28
24518 30646 30648 28
24519 30646 30649 28
24520 30646 30650 28
24521 30651 30652 28
24522 30651 30653 28
24523 30651 30654 28
24524 30651 30655 28
24525 30656 30657 28
24526 30656 30658 28
24527 30656 30659 28
24528 30656 30660 28
24529 30661 30662 28
24530 30661 30663 28
24531 30661 30664 28
24532 30661 30665 28
24533 30666 30667 28
24534 30666 30668 28
24535 30666 30669 28
24536 30666 30670 28
24537 30671 30672 28
24538 30671 30673 28
24539 30671 30674 28
24540 30671 30675 28
24541 30676 30677 28
24542 30676 30678 28
24543 30676 30679 28
24544 30676 30680 28
24545 30681 30682 28
24546 30681 30683 28
24547 30681 30684 28
24548 30681 30685 28
24549 30686 30687 28
24550 30686 30688 28
24551 30686 30689 28
24552 30686 30690 28
24553 30691 30692 28
24554 30691 30693 28
24555 30691 30694 28
24556 30691 30695 28
24557 30696 30697 28
24558 30696 30698 28
24559 30696 30699 28
24560 30696 30700 28
24561 30701 30702 28
24562 30701 30703 28
24563 30701 30704 28
24564 30701 30705 28
24565 30706 30707 28
24566 30706 30708 28
24567 30706 30709 28
24568 30706 30710 28
24569 30711 30712 28
24570 30711 30713 28
24571 30711 30714 28
24572 30711 30715 28
24573 30716 30717 28
24574 30716 30718 28
24575 30716 30719 28
24576 30716 30720 28
24577 30721 30722 28
24578 30721 30723 28
24579 30721 30724 28
24580 30721 30725 28
24581 30726 30727 28
24582 30726 30728 28
24583 30726 30729 28
24584 30726 30730 28
24585 30731 30732 28
24586 30731 30733 28
24587 30731 30734 28
24588 30731 30735 28
24589 30736 30737 28
24590 30736 30738 28
24591 30736 30739 28
24592 30736 30740 28
24593 30741 30742 28
24594 30741 30743 28
24595 30741 30744 28
24596 30741 30745 28
24597 30746 30747 28
24598 30746 30748 28
24599 30746 30749 28
24600 30746 30750 28
24601 30751 30752 28
24602 30751 30753 28
24603 30751 30754 28
24604 30751 30755 28
24605 30756 30757 28
24606 30756 30758 28
24607 30756 30759 28
24608 30756 30760 28
24609 30761 30762 28
24610 30761 30763 28
24611 30761 30764 28
24612 30761 30765 28
24613 30766 30767 28
24614 30766 30768 28
24615 30766 30769 28
24616 30766 30770 28
24617 30771 30772 28
24618 30771 30773 28
24619 30771 30774 28
24620 30771 30775 28
24621 30776 30777 28
24622 30776 30778 28
24623 30776 30779 28
24624 30776 30780 28
24625 30781 30782 28
24626 30781 30783 28
24627 30781 30784 28
24628 30781 30785 28
24629 30786 30787 28
24630 30786 30788 28
24631 30786 30789 28
24632 30786 30790 28
24633 30791 30792 28
24634 30791 30793 28
24635 30791 30794 28
24636 30791 30795 28
24637 30796 30797 28
24638 30796 30798 28
24639 30796 30799 28
24640 30796 30800 28
24641 30801 30802 28
24642 30801 30803 28
24643 30801 30804 28
24644 30801 30805 28
24645 30806 30807 28
24646 30806 30808 28
24647 30806 30809 28
24648 30806 30810 28
24649 30811 30812 28
24650 30811 30813 28
24651 30811 30814 28
24652 30811 30815 28
24653 30816 30817 28
24654 30816 30818 28
24655 30816 30819 28
24656 30816 30820 28
24657 30821 30822 28
24658 30821 30823 28
24659 30821 30824 28
24660 30821 30825 28
24661 30826 30827 28
24662 30826 30828 28
24663 30826 30829 28
24664 30826 30830 28
24665 30831 30832 28
24666 30831 30833 28
24667 30831 30834 28
24668 30831 30835 28
24669 30836 30837 28
24670 30836 30838 28
24671 30836 30839 28
24672 30836 30840 28
24673 30841 30842 28
24674 30841 30843 28
24675 30841 30844 28
24676 30841 30845 28
24677 30846 30847 28
24678 30846 30848 28
24679 30846 30849 28
24680 30846 30850 28
24681 30851 30852 28
24682 30851 30853 28
24683 30851 30854 28
24684 30851 30855 28
24685 30856 30857 28
24686 30856 30858 28
24687 30856 30859 28
24688 30856 30860 28
24689 30861 30862 28
24690 30861 30863 28
24691 30861 30864 28
24692 30861 30865 28
24693 30866 30867 28
24694 30866 30868 28
24695 30866 30869 28
24696 30866 30870 28
24697 30871 30872 28
24698 30871 30873 28
24699 30871 30874 28
24700 30871 30875 28
24701 30876 30877 28
24702 30876 30878 28
24703 30876 30879 28
24704 30876 30880 28
24705 30881 30882 28
24706 30881 30883 28
24707 30881 30884 28
24708 30881 30885 28
24709 30886 30887 28
24710 30886 30888 28
24711 30886 30889 28
24712 30886 30890 28
24713 30891 30892 28
24714 30891 30893 28
24715 30891 30894 28
24716 30891 30895 28
24717 30896 30897 28
24718 30896 30898 28
24719 30896 30899 28
24720 30896 30900 28
24721 30901 30902 28
24722 30901 30903 28
24723 30901 30904 28
24724 30901 30905 28
24725 30906 30907 28
24726 30906 30908 28
24727 30906 30909 28
24728 30906 30910 28
24729 30911 30912 28
24730 30911 30913 28
24731 30911 30914 28
24732 30911 30915 28
24733 30916 30917 28
24734 30916 30918 28
24735 30916 30919 28
24736 30916 30920 28
24737 30921 30922 28
24738 30921 30923 28
24739 30921 30924 28
24740 30921 30925 28
24741 30926 30927 28
24742 30926 30928 28
24743 30926 30929 28
24744 30926 30930 28
24745 30931 30932 28
24746 30931 30933 28
24747 30931 30934 28
24748 30931 30935 28
24749 30936 30937 28
24750 30936 30938 28
24751 30936 30939 28
24752 30936 30940 28
24753 30941 30942 28
24754 30941 30943 28
24755 30941 30944 28
24756 30941 30945 28
24757 30946 30947 28
24758 30946 30948 28
24759 30946 30949 28
24760 30946 30950 28
24761 30951 30952 28
24762 30951 30953 28
24763 30951 30954 28
24764 30951 30955 28
24765 30956 30957 28
24766 30956 30958 28
24767 30956 30959 28
24768 30956 30960 28
24769 30961 30962 28
24770 30961 30963 28
24771 30961 30964 28
24772 30961 30965 28
24773 30966 30967 28
24774 30966 30968 28
24775 30966 30969 28
24776 30966 30970 28
24777 30971 30972 28
24778 30971 30973 28
24779 30971 30974 28
24780 30971 30975 28
24781 30976 30977 28
24782 30976 30978 28
24783 30976 30979 28
24784 30976 30980 28
24785 30981 30982 28
24786 30981 30983 28
24787 30981 30984 28
24788 30981 30985 28
24789 30986 30987 28
24790 30986 30988 28
24791 30986 30989 28
24792 30986 30990 28
24793 30991 30992 28
24794 30991 30993 28
24795 30991 30994 28
24796 30991 30995 28
24797 30996 30997 28
24798 30996 30998 28
24799 30996 30999 28
24800 30996 31000 28
24801 31001 31002 28
24802 31001 31003 28
24803 31001 31004 28
24804 31001 31005 28
24805 31006 31007 28
24806 31006 31008 28
24807 31006 31009 28
24808 31006 31010 28
24809 31011 31012 28
24810 31011 31013 28
24811 31011 31014 28
24812 31011 31015 28
24813 31016 31017 28
24814 31016 31018 28
24815 31016 31019 28
24816 31016 31020 28
24817 31021 31022 28
24818 31021 31023 28
24819 31021 31024 28
24820 31021 31025 28
24821 31026 31027 28
24822 31026 31028 28
24823 31026 31029 28
24824 31026 31030 28
24825 31031 31032 28
24826 31031 31033 28
24827 31031 31034 28
24828 31031 31035 28
24829 31036 31037 28
24830 31036 31038 28
24831 31036 31039 28
24832 31036 31040 28
24833 31041 31042 28
24834 31041 31043 28
24835 31041 31044 28
24836 31041 31045 28
24837 31046 31047 28
24838 31046 31048 28
24839 31046 31049 28
24840 31046 31050 28
24841 31051 31052 28
24842 31051 31053 28
24843 31051 31054 28
24844 31051 31055 28
24845 31056 31057 28
24846 31056 31058 28
24847 31056 31059 28
24848 31056 31060 28
24849 31061 31062 28
24850 31061 31063 28
24851 31061 31064 28
24852 31061 31065 28
24853 31066 31067 28
24854 31066 31068 28
24855 31066 31069 28
24856 31066 31070 28
24857 31071 31072 28
24858 31071 31073 28
24859 31071 31074 28
24860 31071 31075 28
24861 31076 31077 28
24862 31076 31078 28
24863 31076 31079 28
24864 31076 31080 28
24865 31081 31082 28
24866 31081 31083 28
24867 31081 31084 28
24868 31081 31085 28
24869 31086 31087 28
24870 31086 31088 28
24871 31086 31089 28
24872 31086 31090 28
24873 31091 31092 28
24874 31091 31093 28
24875 31091 31094 28
24876 31091 31095 28
24877 31096 31097 28
24878 31096 31098 28
24879 31096 31099 28
24880 31096 31100 28
24881 31101 31102 28
24882 31101 31103 28
24883 31101 31104 28
24884 31101 31105 28
24885 31106 31107 28
24886 31106 31108 28
24887 31106 31109 28
24888 31106 31110 28
24889 31111 31112 28
24890 31111 31113 28
24891 31111 31114 28
24892 31111 31115 28
24893 31116 31117 28
24894 31116 31118 28
24895 31116 31119 28
24896 31116 31120 28
24897 31121 31122 28
24898 31121 31123 28
24899 31121 31124 28
24900 31121 31125 28
24901 31126 31127 28
24902 31126 31128 28
24903 31126 31129 28
24904 31126 31130 28
24905 31131 31132 28
24906 31131 31133 28
24907 31131 31134 28
24908 31131 31135 28
24909 31136 31137 28
24910 31136 31138 28
24911 31136 31139 28
24912 31136 31140 28
24913 31141 31142 28
24914 31141 31143 28
24915 31141 31144 28
24916 31141 31145 28
24917 31146 31147 28
24918 31146 31148 28
24919 31146 31149 28
24920 31146 31150 28
24921 31151 31152 28
24922 31151 31153 28
24923 31151 31154 28
24924 31151 31155 28
24925 31156 31157 28
24926 31156 31158 28
24927 31156 31159 28
24928 31156 31160 28
24929 31161 31162 28
24930 31161 31163 28
24931 31161 31164 28
24932 31161 31165 28
24933 31166 31167 28
24934 31166 31168 28
24935 31166 31169 28
24936 31166 31170 28
24937 31171 31172 28
24938 31171 31173 28
24939 31171 31174 28
24940 31171 31175 28
24941 31176 31177 28
24942 31176 31178 28
24943 31176 31179 28
24944 31176 31180 28
24945 31181 31182 28
24946 31181 31183 28
24947 31181 31184 28
24948 31181 31185 28
24949 31186 31187 28
24950 31186 31188 28
24951 31186 31189 28
24952 31186 31190 28
24953 31191 31192 28
24954 31191 31193 28
24955 31191 31194 28
24956 31191 31195 28
24957 31196 31197 28
24958 31196 31198 28
24959 31196 31199 28
24960 31196 31200 28
24961 31201 31202 28
24962 31201 31203 28
24963 31201 31204 28
24964 31201 31205 28
24965 31206 31207 28
24966 31206 31208 28
24967 31206 31209 28
24968 31206 31210 28
24969 31211 31212 28
24970 31211 31213 28
24971 31211 31214 28
24972 31211 31215 28
24973 31216 31217 28
24974 31216 31218 28
24975 31216 31219 28
24976 31216 31220 28
24977 31221 31222 28
24978 31221 31223 28
24979 31221 31224 28
24980 31221 31225 28
24981 31226 31227 28
24982 31226 31228 28
24983 31226 31229 28
24984 31226 31230 28
24985 31231 31232 28
24986 31231 31233 28
24987 31231 31234 28
24988 31231 31235 28
24989 31236 31237 28
24990 31236 31238 28
24991 31236 31239 28
24992 31236 31240 28
24993 31241 31242 28
24994 31241 31243 28
24995 31241 31244 28
24996 31241 31245 28
24997 31246 31247 28
24998 31246 31248 28
24999 31246 31249 28
25000 31246 31250 28
25001 31251 31252 28
25002 31251 31253 28
25003 31251 31254 28
25004 31251 31255 28
25005 31256 31257 28
25006 31256 31258 28
25007 31256 31259 28
25008 31256 31260 28
25009 31261 31262 28
25010 31261 31263 28
25011 31261 31264 28
25012 31261 31265 28
25013 31266 31267 28
25014 31266 31268 28
25015 31266 31269 28
25016 31266 31270 28
25017 31271 31272 28
25018 31271 31273 28
25019 31271 31274 28
25020 31271 31275 28
25021 31276 31277 28
25022 31276 31278 28
25023 31276 31279 28
25024 31276 31280 28
25025 31281 31282 28
25026 31281 31283 28
25027 31281 31284 28
25028 31281 31285 28
25029 31286 31287 28
25030 31286 31288 28
25031 31286 31289 28
25032 31286 31290 28
25033 31291 31292 28
25034 31291 31293 28
25035 31291 31294 28
25036 31291 31295 28
25037 31296 31297 28
25038 31296 31298 28
25039 31296 31299 28
25040 31296 31300 28
25041 31301 31302 28
25042 31301 31303 28
25043 31301 31304 28
25044 31301 31305 28
25045 31306 31307 28
25046 31306 31308 28
25047 31306 31309 28
25048 31306 31310 28
25049 31311 31312 28
25050 31311 31313 28
25051 31311 31314 28
25052 31311 31315 28
25053 31316 31317 28
25054 31316 31318 28
25055 31316 31319 28
25056 31316 31320 28
25057 31321 31322 28
25058 31321 31323 28
25059 31321 31324 28
25060 31321 31325 28
25061 31326 31327 28
25062 31326 31328 28
25063 31326 31329 28
25064 31326 31330 28
25065 31331 31332 28
25066 31331 31333 28
25067 31331 31334 28
25068 31331 31335 28
25069 31336 31337 28
25070 31336 31338 28
25071 31336 31339 28
25072 31336 31340 28
25073 31341 31342 28
25074 31341 31343 28
25075 31341 31344 28
25076 31341 31345 28
25077 31346 31347 28
25078 31346 31348 28
25079 31346 31349 28
25080 31346 31350 28
25081 31351 31352 28
25082 31351 31353 28
25083 31351 31354 28
25084 31351 31355 28
25085 31356 31357 28
25086 31356 31358 28
25087 31356 31359 28
25088 31356 31360 28
25089 31361 31362 28
25090 31361 31363 28
25091 31361 31364 28
25092 31361 31365 28
25093 31366 31367 28
25094 31366 31368 28
25095 31366 31369 28
25096 31366 31370 28
25097 31371 31372 28
25098 31371 31373 28
25099 31371 31374 28
25100 31371 31375 28
25101 31376 31377 28
25102 31376 31378 28
25103 31376 31379 28
25104 31376 31380 28
25105 31381 31382 28
25106 31381 31383 28
25107 31381 31384 28
25108 31381 31385 28
25109 31386 31387 28
25110 31386 31388 28
25111 31386 31389 28
25112 31386 31390 28
25113 31391 31392 28
25114 31391 31393 28
25115 31391 31394 28
25116 31391 31395 28
25117 31396 31397 28
25118 31396 31398 28
25119 31396 31399 28
25120 31396 31400 28
25121 31401 31402 28
25122 31401 31403 28
25123 31401 31404 28
25124 31401 31405 28
25125 31406 31407 28
25126 31406 31408 28
25127 31406 31409 28
25128 31406 31410 28
25129 31411 31412 28
25130 31411 31413 28
25131 31411 31414 28
25132 31411 31415 28
25133 31416 31417 28
25134 31416 31418 28
25135 31416 31419 28
25136 31416 31420 28
25137 31421 31422 28
25138 31421 31423 28
25139 31421 31424 28
25140 31421 31425 28
25141 31426 31427 28
25142 31426 31428 28
25143 31426 31429 28
25144 31426 31430 28
25145 31431 31432 28
25146 31431 31433 28
25147 31431 31434 28
25148 31431 31435 28
25149 31436 31437 28
25150 31436 31438 28
25151 31436 31439 28
25152 31436 31440 28
25153 31441 31442 28
25154 31441 31443 28
25155 31441 31444 28
25156 31441 31445 28
25157 31446 31447 28
25158 31446 31448 28
25159 31446 31449 28
25160 31446 31450 28
25161 31451 31452 28
25162 31451 31453 28
25163 31451 31454 28
25164 31451 31455 28
25165 31456 31457 28
25166 31456 31458 28
25167 31456 31459 28
25168 31456 31460 28
25169 31461 31462 28
25170 31461 31463 28
25171 31461 31464 28
25172 31461 31465 28
25173 31466 31467 28
25174 31466 31468 28
25175 31466 31469 28
25176 31466 31470 28
25177 31471 31472 28
25178 31471 31473 28
25179 31471 31474 28
25180 31471 31475 28
25181 31476 31477 28
25182 31476 31478 28
25183 31476 31479 28
25184 31476 31480 28
25185 31481 31482 28
25186 31481 31483 28
25187 31481 31484 28
25188 31481 31485 28
25189 31486 31487 28
25190 31486 31488 28
25191 31486 31489 28
25192 31486 31490 28
25193 31491 31492 28
25194 31491 31493 28
25195 31491 31494 28
25196 31491 31495 28
25197 31496 31497 28
25198 31496 31498 28
25199 31496 31499 28
25200 31496 31500 28
25201 31501 31502 28
25202 31501 31503 28
25203 31501 31504 28
25204 31501 31505 28
25205 31506 31507 28
25206 31506 31508 28
25207 31506 31509 28
25208 31506 31510 28
25209 31511 31512 28
25210 31511 31513 28
25211 31511 31514 28
25212 31511 31515 28
25213 31516 31517 28
25214 31516 31518 28
25215 31516 31519 28
25216 31516 31520 28
25217 31521 31522 28
25218 31521 31523 28
25219 31521 31524 28
25220 31521 31525 28
25221 31526 31527 28
25222 31526 31528 28
25223 31526 31529 28
25224 31526 31530 28
25225 31531 31532 28
25226 31531 31533 28
25227 31531 31534 28
25228 31531 31535 28
25229 31536 31537 28
25230 31536 31538 28
25231 31536 31539 28
25232 31536 31540 28
25233 31541 31542 28
25234 31541 31543 28
25235 31541 31544 28
25236 31541 31545 28
25237 31546 31547 28
25238 31546 31548 28
25239 31546 31549 28
25240 31546 31550 28
25241 31551 31552 28
25242 31551 31553 28
25243 31551 31554 28
25244 31551 31555 28
25245 31556 31557 28
25246 31556 31558 28
25247 31556 31559 28
25248 31556 31560 28
25249 31561 31562 28
25250 31561 31563 28
25251 31561 31564 28
25252 31561 31565 28
25253 31566 31567 28
25254 31566 31568 28
25255 31566 31569 28
25256 31566 31570 28
25257 31571 31572 28
25258 31571 31573 28
25259 31571 31574 28
25260 31571 31575 28
25261 31576 31577 28
25262 31576 31578 28
25263 31576 31579 28
25264 31576 31580 28
25265 31581 31582 28
25266 31581 31583 28
25267 31581 31584 28
25268 31581 31585 28
25269 31586 31587 28
25270 31586 31588 28
25271 31586 31589 28
25272 31586 31590 28
25273 31591 31592 28
25274 31591 31593 28
25275 31591 31594 28
25276 31591 31595 28
25277 31596 31597 28
25278 31596 31598 28
25279 31596 31599 28
25280 31596 31600 28
25281 31601 31602 28
25282 31601 31603 28
25283 31601 31604 28
25284 31601 31605 28
25285 31606 31607 28
25286 31606 31608 28
25287 31606 31609 28
25288 31606 31610 28
25289 31611 31612 28
25290 31611 31613 28
25291 31611 31614 28
25292 31611 31615 28
25293 31616 31617 28
25294 31616 31618 28
25295 31616 31619 28
25296 31616 31620 28
25297 31621 31622 28
25298 31621 31623 28
25299 31621 31624 28
25300 31621 31625 28
25301 31626 31627 28
25302 31626 31628 28
25303 31626 31629 28
25304 31626 31630 28
25305 31631 31632 28
25306 31631 31633 28
25307 31631 31634 28
25308 31631 31635 28
25309 31636 31637 28
25310 31636 31638 28
25311 31636 31639 28
25312 31636 31640 28
25313 31641 31642 28
25314 31641 31643 28
25315 31641 31644 28
25316 31641 31645 28
25317 31646 31647 28
25318 31646 31648 28
25319 31646 31649 28
25320 31646 31650 28
25321 31651 31652 28
25322 31651 31653 28
25323 31651 31654 28
25324 31651 31655 28
25325 31656 31657 28
25326 31656 31658 28
25327 31656 31659 28
25328 31656 31660 28
25329 31661 31662 28
25330 31661 31663 28
25331 31661 31664 28
25332 31661 31665 28
25333 31666 31667 28
25334 31666 31668 28
25335 31666 31669 28
25336 31666 31670 28
25337 31671 31672 28
25338 31671 31673 28
25339 31671 31674 28
25340 31671 31675 28
25341 31676 31677 28
25342 31676 31678 28
25343 31676 31679 28
25344 31676 31680 28
25345 31681 31682 28
25346 31681 31683 28
25347 31681 31684 28
25348 31681 31685 28
25349 31686 31687 28
25350 31686 31688 28
25351 31686 31689 28
25352 31686 31690 28
25353 31691 31692 28
25354 31691 31693 28
25355 31691 31694 28
25356 31691 31695 28
25357 31696 31697 28
25358 31696 31698 28
25359 31696 31699 28
25360 31696 31700 28
25361 31701 31702 28
25362 31701 31703 28
25363 31701 31704 28
25364 31701 31705 28
25365 31706 31707 28
25366 31706 31708 28
25367 31706 31709 28
25368 31706 31710 28
25369 31711 31712 28
25370 31711 31713 28
25371 31711 31714 28
25372 31711 31715 28
25373 31716 31717 28
25374 31716 31718 28
25375 31716 31719 28
25376 31716 31720 28
25377 31721 31722 28
25378 31721 31723 28
25379 31721 31724 28
25380 31721 31725 28
25381 31726 31727 28
25382 31726 31728 28
25383 31726 31729 28
25384 31726 31730 28
25385 31731 31732 28
25386 31731 31733 28
25387 31731 31734 28
25388 31731 31735 28
25389 31736 31737 28
25390 31736 31738 28
25391 31736 31739 28
25392 31736 31740 28
25393 31741 31742 28
25394 31741 31743 28
25395 31741 31744 28
25396 31741 31745 28
25397 31746 31747 28
25398 31746 31748 28
25399 31746 31749 28
25400 31746 31750 28
25401 31751 31752 28
25402 31751 31753 28
25403 31751 31754 28
25404 31751 31755 28
25405 31756 31757 28
25406 31756 31758 28
25407 31756 31759 28
25408 31756 31760 28
25409 31761 31762 28
25410 31761 31763 28
25411 31761 31764 28
25412 31761 31765 28
25413 31766 31767 28
25414 31766 31768 28
25415 31766 31769 28
25416 31766 31770 28
25417 31771 31772 28
25418 31771 31773 28
25419 31771 31774 28
25420 31771 31775 28
25421 31776 31777 28
25422 31776 31778 28
25423 31776 31779 28
25424 31776 31780 28
25425 31781 31782 28
25426 31781 31783 28
25427 31781 31784 28
25428 31781 31785 28
25429 31786 31787 28
25430 31786 31788 28
25431 31786 31789 28
25432 31786 31790 28
25433 31791 31792 28
25434 31791 31793 28
25435 31791 31794 28
25436 31791 31795 28
25437 31796 31797 28
25438 31796 31798 28
25439 31796 31799 28
25440 31796 31800 28
25441 31801 31802 28
25442 31801 31803 28
25443 31801 31804 28
25444 31801 31805 28
25445 31806 31807 28
25446 31806 31808 28
25447 31806 31809 28
25448 31806 31810 28
25449 31811 31812 28
25450 31811 31813 28
25451 31811 31814 28
25452 31811 31815 28
25453 31816 31817 28
25454 31816 31818 28
25455 31816 31819 28
25456 31816 31820 28
25457 31821 31822 28
25458 31821 31823 28
25459 31821 31824 28
25460 31821 31825 28
25461 31826 31827 28
25462 31826 31828 28
25463 31826 31829 28
25464 31826 31830 28
25465 31831 31832 28
25466 31831 31833 28
25467 31831 31834 28
25468 31831 31835 28
25469 31836 31837 28
25470 31836 31838 28
25471 31836 31839 28
25472 31836 31840 28
25473 31841 31842 28
25474 31841 31843 28
25475 31841 31844 28
25476 31841 31845 28
25477 31846 31847 28
25478 31846 31848 28
25479 31846 31849 28
25480 31846 31850 28
25481 31851 31852 28
25482 31851 31853 28
25483 31851 31854 28
25484 31851 31855 28
25485 31856 31857 28
25486 31856 31858 28
25487 31856 31859 28
25488 31856 31860 28
25489 31861 31862 28
25490 31861 31863 28
25491 31861 31864 28
25492 31861 31865 28
25493 31866 31867 28
25494 31866 31868 28
25495 31866 31869 28
25496 31866 31870 28
25497 31871 31872 28
25498 31871 31873 28
25499 31871 31874 28
25500 31871 31875 28
25501 31876 31877 28
25502 31876 31878 28
25503 31876 31879 28
25504 31876 31880 28
25505 31881 31882 28
25506 31881 31883 28
25507 31881 31884 28
25508 31881 31885 28
25509 31886 31887 28
25510 31886 31888 28
25511 31886 31889 28
25512 31886 31890 28
25513 31891 31892 28
25514 31891 31893 28
25515 31891 31894 28
25516 31891 31895 28
25517 31896 31897 28
25518 31896 31898 28
25519 31896 31899 28
25520 31896 31900 28
25521 31901 31902 28
25522 31901 31903 28
25523 31901 31904 28
25524 31901 31905 28
25525 31906 31907 28
25526 31906 31908 28
25527 31906 31909 28
25528 31906 31910 28
25529 31911 31912 28
25530 31911 31913 28
25531 31911 31914 28
25532 31911 31915 28
25533 31916 31917 28
25534 31916 31918 28
25535 31916 31919 28
25536 31916 31920 28
25537 31921 31922 28
25538 31921 31923 28
25539 31921 31924 28
25540 31921 31925 28
25541 31926 31927 28
25542 31926 31928 28
25543 31926 31929 28
25544 31926 31930 28
25545 31931 31932 28
25546 31931 31933 28
25547 31931 31934 28
25548 31931 31935 28
25549 31936 31937 28
25550 31936 31938 28
25551 31936 31939 28
25552 31936 31940 28
25553 31941 31942 28
25554 31941 31943 28
25555 31941 31944 28
25556 31941 31945 28
25557 31946 31947 28
25558 31946 31948 28
25559 31946 31949 28
25560 31946 31950 28
25561 31951 31952 28
25562 31951 31953 28
25563 31951 31954 28
25564 31951 31955 28
25565 31956 31957 28
25566 31956 31958 28
25567 31956 31959 28
25568 31956 31960 28
25569 31961 31962 28
25570 31961 31963 28
25571 31961 31964 28
25572 31961 31965 28
25573 31966 31967 28
25574 31966 31968 28
25575 31966 31969 28
25576 31966 31970 28
25577 31971 31972 28
25578 31971 31973 28
25579 31971 31974 28
25580 31971 31975 28
25581 31976 31977 28
25582 31976 31978 28
25583 31976 31979 28
25584 31976 31980 28
25585 31981 31982 28
25586 31981 31983 28
25587 31981 31984 28
25588 31981 31985 28
25589 31986 31987 28
25590 31986 31988 28
25591 31986 31989 28
25592 31986 31990 28
25593 31991 31992 28
25594 31991 31993 28
25595 31991 31994 28
25596 31991 31995 28
25597 31996 31997 28
25598 31996 31998 28
25599 31996 31999 28
25600 31996 32000 28
25601 32001 32002 28
25602 32001 32003 28
25603 32001 32004 28
25604 32001 32005 28
25605 32006 32007 28
25606 32006 32008 28
25607 32006 32009 28
25608 32006 32010 28
25609 32011 32012 28
25610 32011 32013 28
25611 32011 32014 28
25612 32011 32015 28
25613 32016 32017 28
25614 32016 32018 28
25615 32016 32019 28
25616 32016 32020 28
25617 32021 32022 28
25618 32021 32023 28
25619 32021 32024 28
25620 32021 32025 28
25621 32026 32027 28
25622 32026 32028 28
25623 32026 32029 28
25624 32026 32030 28
25625 32031 32032 28
25626 32031 32033 28
25627 32031 32034 28
25628 32031 32035 28
25629 32036 32037 28
25630 32036 32038 28
25631 32036 32039 28
25632 32036 32040 28
25633 32041 32042 28
25634 32041 32043 28
25635 32041 32044 28
25636 32041 32045 28
25637 32046 32047 28
25638 32046 32048 28
25639 32046 32049 28
25640 32046 32050 28
25641 32051 32052 28
25642 32051 32053 28
25643 32051 32054 28
25644 32051 32055 28
25645 32056 32057 28
25646 32056 32058 28
25647 32056 32059 28
25648 32056 32060 28
25649 32061 32062 28
25650 32061 32063 28
25651 32061 32064 28
25652 32061 32065 28
25653 32066 32067 28
25654 32066 32068 28
25655 32066 32069 28
25656 32066 32070 28
25657 32071 32072 28
25658 32071 32073 28
25659 32071 32074 28
25660 32071 32075 28
25661 32076 32077 28
25662 32076 32078 28
25663 32076 32079 28
25664 32076 32080 28
25665 32081 32082 28
25666 32081 32083 28
25667 32081 32084 28
25668 32081 32085 28
25669 32086 32087 28
25670 32086 32088 28
25671 32086 32089 28
25672 32086 32090 28
25673 32091 32092 28
25674 32091 32093 28
25675 32091 32094 28
25676 32091 32095 28
25677 32096 32097 28
25678 32096 32098 28
25679 32096 32099 28
25680 32096 32100 28
25681 32101 32102 28
25682 32101 32103 28
25683 32101 32104 28
25684 32101 32105 28
25685 32106 32107 28
25686 32106 32108 28
25687 32106 32109 28
25688 32106 32110 28
25689 32111 32112 28
25690 32111 32113 28
25691 32111 32114 28
25692 32111 32115 28
25693 32116 32117 28
25694 32116 32118 28
25695 32116 32119 28
25696 32116 32120 28
25697 32121 32122 28
25698 32121 32123 28
25699 32121 32124 28
25700 32121 32125 28
25701 32126 32127 28
25702 32126 32128 28
25703 32126 32129 28
25704 32126 32130 28
25705 32131 32132 28
25706 32131 32133 28
25707 32131 32134 28
25708 32131 32135 28
25709 32136 32137 28
25710 32136 32138 28
25711 32136 32139 28
25712 32136 32140 28
25713 32141 32142 28
25714 32141 32143 28
25715 32141 32144 28
25716 32141 32145 28
25717 32146 32147 28
25718 32146 32148 28
25719 32146 32149 28
25720 32146 32150 28
25721 32151 32152 28
25722 32151 32153 28
25723 32151 32154 28
25724 32151 32155 28
25725 32156 32157 28
25726 32156 32158 28
25727 32156 32159 28
25728 32156 32160 28
25729 32161 32162 28
25730 32161 32163 28
25731 32161 32164 28
25732 32161 32165 28
25733 32166 32167 28
25734 32166 32168 28
25735 32166 32169 28
25736 32166 32170 28
25737 32171 32172 28
25738 32171 32173 28
25739 32171 32174 28
25740 32171 32175 28
25741 32176 32177 28
25742 32176 32178 28
25743 32176 32179 28
25744 32176 32180 28
25745 32181 32182 28
25746 32181 32183 28
25747 32181 32184 28
25748 32181 32185 28
25749 32186 32187 28
25750 32186 32188 28
25751 32186 32189 28
25752 32186 32190 28
25753 32191 32192 28
25754 32191 32193 28
25755 32191 32194 28
25756 32191 32195 28
25757 32196 32197 28
25758 32196 32198 28
25759 32196 32199 28
25760 32196 32200 28
25761 32201 32202 28
25762 32201 32203 28
25763 32201 32204 28
25764 32201 32205 28
25765 32206 32207 28
25766 32206 32208 28
25767 32206 32209 28
25768 32206 32210 28
25769 32211 32212 28
25770 32211 32213 28
25771 32211 32214 28
25772 32211 32215 28
25773 32216 32217 28
25774 32216 32218 28
25775 32216 32219 28
25776 32216 32220 28
25777 32221 32222 28
25778 32221 32223 28
25779 32221 32224 28
25780 32221 32225 28
25781 32226 32227 28
25782 32226 32228 28
25783 32226 32229 28
25784 32226 32230 28
25785 32231 32232 28
25786 32231 32233 28
25787 32231 32234 28
25788 32231 32235 28
25789 32236 32237 28
25790 32236 32238 28
25791 32236 32239 28
25792 32236 32240 28
25793 32241 32242 28
25794 32241 32243 28
25795 32241 32244 28
25796 32241 32245 28
25797 32246 32247 28
25798 32246 32248 28
25799 32246 32249 28
25800 32246 32250 28
25801 32251 32252 28
25802 32251 32253 28
25803 32251 32254 28
25804 32251 32255 28
25805 32256 32257 28
25806 32256 32258 28
25807 32256 32259 28
25808 32256 32260 28
25809 32261 32262 28
25810 32261 32263 28
25811 32261 32264 28
25812 32261 32265 28
25813 32266 32267 28
25814 32266 32268 28
25815 32266 32269 28
25816 32266 32270 28
25817 32271 32272 28
25818 32271 32273 28
25819 32271 32274 28
25820 32271 32275 28
25821 32276 32277 28
25822 32276 32278 28
25823 32276 32279 28
25824 32276 32280 28
25825 32281 32282 28
25826 32281 32283 28
25827 32281 32284 28
25828 32281 32285 28
25829 32286 32287 28
25830 32286 32288 28
25831 32286 32289 28
25832 32286 32290 28
25833 32291 32292 28
25834 32291 32293 28
25835 32291 32294 28
25836 32291 32295 28
25837 32296 32297 28
25838 32296 32298 28
25839 32296 32299 28
25840 32296 32300 28
25841 32301 32302 28
25842 32301 32303 28
25843 32301 32304 28
25844 32301 32305 28
25845 32306 32307 28
25846 32306 32308 28
25847 32306 32309 28
25848 32306 32310 28
25849 32311 32312 28
25850 32311 32313 28
25851 32311 32314 28
25852 32311 32315 28
25853 32316 32317 28
25854 32316 32318 28
25855 32316 32319 28
25856 32316 32320 28
25857 32321 32322 28
25858 32321 32323 28
25859 32321 32324 28
25860 32321 32325 28
25861 32326 32327 28
25862 32326 32328 28
25863 32326 32329 28
25864 32326 32330 28
25865 32331 32332 28
25866 32331 32333 28
25867 32331 32334 28
25868 32331 32335 28
25869 32336 32337 28
25870 32336 32338 28
25871 32336 32339 28
25872 32336 32340 28
25873 32341 32342 28
25874 32341 32343 28
25875 32341 32344 28
25876 32341 32345 28
25877 32346 32347 28
25878 32346 32348 28
25879 32346 32349 28
25880 32346 32350 28
25881 32351 32352 28
25882 32351 32353 28
25883 32351 32354 28
25884 32351 32355 28
25885 32356 32357 28
25886 32356 32358 28
25887 32356 32359 28
25888 32356 32360 28
25889 32361 32362 28
25890 32361 32363 28
25891 32361 32364 28
25892 32361 32365 28
25893 32366 32367 28
25894 32366 32368 28
25895 32366 32369 28
25896 32366 32370 28
25897 32371 32372 28
25898 32371 32373 28
25899 32371 32374 28
25900 32371 32375 28
25901 32376 32377 28
25902 32376 32378 28
25903 32376 32379 28
25904 32376 32380 28
25905 32381 32382 28
25906 32381 32383 28
25907 32381 32384 28
25908 32381 32385 28
25909 32386 32387 28
25910 32386 32388 28
25911 32386 32389 28
25912 32386 32390 28
25913 32391 32392 28
25914 32391 32393 28
25915 32391 32394 28
25916 32391 32395 28
25917 32396 32397 28
25918 32396 32398 28
25919 32396 32399 28
25920 32396 32400 28
25921 32401 32402 28
25922 32401 32403 28
25923 32401 32404 28
25924 32401 32405 28
25925 32406 32407 28
25926 32406 32408 28
25927 32406 32409 28
25928 32406 32410 28
25929 32411 32412 28
25930 32411 32413 28
25931 32411 32414 28
25932 32411 32415 28
25933 32416 32417 28
25934 32416 32418 28
25935 32416 32419 28
25936 32416 32420 28
25937 32421 32422 28
25938 32421 32423 28
25939 32421 32424 28
25940 32421 32425 28
25941 32426 32427 28
25942 32426 32428 28
25943 32426 32429 28
25944 32426 32430 28
25945 32431 32432 28
25946 32431 32433 28
25947 32431 32434 28
25948 32431 32435 28
25949 32436 32437 28
25950 32436 32438 28
25951 32436 32439 28
25952 32436 32440 28
25953 32441 32442 28
25954 32441 32443 28
25955 32441 32444 28
25956 32441 32445 28
25957 32446 32447 28
25958 32446 32448 28
25959 32446 32449 28
25960 32446 32450 28
25961 32451 32452 28
25962 32451 32453 28
25963 32451 32454 28
25964 32451 32455 28
25965 32456 32457 28
25966 32456 32458 28
25967 32456 32459 28
25968 32456 32460 28
25969 32461 32462 28
25970 32461 32463 28
25971 32461 32464 28
25972 32461 32465 28
25973 32466 32467 28
25974 32466 32468 28
25975 32466 32469 28
25976 32466 32470 28
25977 32471 32472 28
25978 32471 32473 28
25979 32471 32474 28
25980 32471 32475 28
25981 32476 32477 28
25982 32476 32478 28
25983 32476 32479 28
25984 32476 32480 28
25985 32481 32482 28
25986 32481 32483 28
25987 32481 32484 28
25988 32481 32485 28
25989 32486 32487 28
25990 32486 32488 28
25991 32486 32489 28
25992 32486 32490 28
25993 32491 32492 28
25994 32491 32493 28
25995 32491 32494 28
25996 32491 32495 28
25997 32496 32497 28
25998 32496 32498 28
25999 32496 32499 28
26000 32496 32500 28
26001 32501 32502 28
26002 32501 32503 28
26003 32501 32504 28
26004 32501 32505 28
26005 32506 32507 28
26006 32506 32508 28
26007 32506 32509 28
26008 32506 32510 28
26009 32511 32512 28
26010 32511 32513 28
26011 32511 32514 28
26012 32511 32515 28
26013 32516 32517 28
26014 32516 32518 28
26015 32516 32519 28
26016 32516 32520 28
26017 32521 32522 28
26018 32521 32523 28
26019 32521 32524 28
26020 32521 32525 28
26021 32526 32527 28
26022 32526 32528 28
26023 32526 32529 28
26024 32526 32530 28
26025 32531 32532 28
26026 32531 32533 28
26027 32531 32534 28
26028 32531 32535 28
26029 32536 32537 28
26030 32536 32538 28
26031 32536 32539 28
26032 32536 32540 28
26033 32541 32542 28
26034 32541 32543 28
26035 32541 32544 28
26036 32541 32545 28
26037 32546 32547 28
26038 32546 32548 28
26039 32546 32549 28
26040 32546 32550 28
26041 32551 32552 28
26042 32551 32553 28
26043 32551 32554 28
26044 32551 32555 28
26045 32556 32557 28
26046 32556 32558 28
26047 32556 32559 28
26048 32556 32560 28
26049 32561 32562 28
26050 32561 32563 28
26051 32561 32564 28
26052 32561 32565 28
26053 32566 32567 28
26054 32566 32568 28
26055 32566 32569 28
26056 32566 32570 28
26057 32571 32572 28
26058 32571 32573 28
26059 32571 32574 28
26060 32571 32575 28
26061 32576 32577 28
26062 32576 32578 28
26063 32576 32579 28
26064 32576 32580 28
26065 32581 32582 28
26066 32581 32583 28
26067 32581 32584 28
26068 32581 32585 28
26069 32586 32587 28
26070 32586 32588 28
26071 32586 32589 28
26072 32586 32590 28
26073 32591 32592 28
26074 32591 32593 28
26075 32591 32594 28
26076 32591 32595 28
26077 32596 32597 28
26078 32596 32598 28
26079 32596 32599 28
26080 32596 32600 28
26081 32601 32602 28
26082 32601 32603 28
26083 32601 32604 28
26084 32601 32605 28
26085 32606 32607 28
26086 32606 32608 28
26087 32606 32609 28
26088 32606 32610 28
26089 32611 32612 28
26090 32611 32613 28
26091 32611 32614 28
26092 32611 32615 28
26093 32616 32617 28
26094 32616 32618 28
26095 32616 32619 28
26096 32616 32620 28
26097 32621 32622 28
26098 32621 32623 28
26099 32621 32624 28
26100 32621 32625 28
26101 32626 32627 28
26102 32626 32628 28
26103 32626 32629 28
26104 32626 32630 28
26105 32631 32632 28
26106 32631 32633 28
26107 32631 32634 28
26108 32631 32635 28
26109 32636 32637 28
26110 32636 32638 28
26111 32636 32639 28
26112 32636 32640 28
26113 32641 32642 28
26114 32641 32643 28
26115 32641 32644 28
26116 32641 32645 28
26117 32646 32647 28
26118 32646 32648 28
26119 32646 32649 28
26120 32646 32650 28
26121 32651 32652 28
26122 32651 32653 28
26123 32651 32654 28
26124 32651 32655 28
26125 32656 32657 28
26126 32656 32658 28
26127 32656 32659 28
26128 32656 32660 28
26129 32661 32662 28
26130 32661 32663 28
26131 32661 32664 28
26132 32661 32665 28
26133 32666 32667 28
26134 32666 32668 28
26135 32666 32669 28
26136 32666 32670 28
26137 32671 32672 28
26138 32671 32673 28
26139 32671 32674 28
26140 32671 32675 28
26141 32676 32677 28
26142 32676 32678 28
26143 32676 32679 28
26144 32676 32680 28
26145 32681 32682 28
26146 32681 32683 28
26147 32681 32684 28
26148 32681 32685 28
26149 32686 32687 28
26150 32686 32688 28
26151 32686 32689 28
26152 32686 32690 28
26153 32691 32692 28
26154 32691 32693 28
26155 32691 32694 28
26156 32691 32695 28
26157 32696 32697 28
26158 32696 32698 28
26159 32696 32699 28
26160 32696 32700 28
26161 32701 32702 28
26162 32701 32703 28
26163 32701 32704 28
26164 32701 32705 28
26165 32706 32707 28
26166 32706 32708 28
26167 32706 32709 28
26168 32706 32710 28
26169 32711 32712 28
26170 32711 32713 28
26171 32711 32714 28
26172 32711 32715 28
26173 32716 32717 28
26174 32716 32718 28
26175 32716 32719 28
26176 32716 32720 28
26177 32721 32722 28
26178 32721 32723 28
26179 32721 32724 28
26180 32721 32725 28
26181 32726 32727 28
26182 32726 32728 28
26183 32726 32729 28
26184 32726 32730 28
26185 32731 32732 28
26186 32731 32733 28
26187 32731 32734 28
26188 32731 32735 28
26189 32736 32737 28
26190 32736 32738 28
26191 32736 32739 28
26192 32736 32740 28
26193 32741 32742 28
26194 32741 32743 28
26195 32741 32744 28
26196 32741 32745 28
26197 32746 32747 28
26198 32746 32748 28
26199 32746 32749 28
26200 32746 32750 28
26201 32751 32752 28
26202 32751 32753 28
26203 32751 32754 28
26204 32751 32755 28
26205 32756 32757 28
26206 32756 32758 28
26207 32756 32759 28
26208 32756 32760 28
26209 32761 32762 28
26210 32761 32763 28
26211 32761 32764 28
26212 32761 32765 28
26213 32766 32767 28
26214 32766 32768 28
26215 32766 32769 28
26216 32766 32770 28
26217 32771 32772 28
26218 32771 32773 28
26219 32771 32774 28
26220 32771 32775 28
26221 32776 32777 28
26222 32776 32778 28
26223 32776 32779 28
26224 32776 32780 28
26225 32781 32782 28
26226 32781 32783 28
26227 32781 32784 28
26228 32781 32785 28
26229 32786 32787 28
26230 32786 32788 28
26231 32786 32789 28
26232 32786 32790 28
26233 32791 32792 28
26234 32791 32793 28
26235 32791 32794 28
26236 32791 32795 28
26237 32796 32797 28
26238 32796 32798 28
26239 32796 32799 28
26240 32796 32800 28
26241 32801 32802 28
26242 32801 32803 28
26243 32801 32804 28
26244 32801 32805 28
26245 32806 32807 28
26246 32806 32808 28
26247 32806 32809 28
26248 32806 32810 28
26249 32811 32812 28
26250 32811 32813 28
26251 32811 32814 28
26252 32811 32815 28
26253 32816 32817 28
26254 32816 32818 28
26255 32816 32819 28
26256 32816 32820 28
26257 32821 32822 28
26258 32821 32823 28
26259 32821 32824 28
26260 32821 32825 28
26261 32826 32827 28
26262 32826 32828 28
26263 32826 32829 28
26264 32826 32830 28
26265 32831 32832 28
26266 32831 32833 28
26267 32831 32834 28
26268 32831 32835 28
26269 32836 32837 28
26270 32836 32838 28
26271 32836 32839 28
26272 32836 32840 28
26273 32841 32842 28
26274 32841 32843 28
26275 32841 32844 28
26276 32841 32845 28
26277 32846 32847 28
26278 32846 32848 28
26279 32846 32849 28
26280 32846 32850 28
26281 32851 32852 28
26282 32851 32853 28
26283 32851 32854 28
26284 32851 32855 28
26285 32856 32857 28
26286 32856 32858 28
26287 32856 32859 28
26288 32856 32860 28
26289 32861 32862 28
26290 32861 32863 28
26291 32861 32864 28
26292 32861 32865 28
26293 32866 32867 28
26294 32866 32868 28
26295 32866 32869 28
26296 32866 32870 28
26297 32871 32872 28
26298 32871 32873 28
26299 32871 32874 28
26300 32871 32875 28
26301 32876 32877 28
26302 32876 32878 28
26303 32876 32879 28
26304 32876 32880 28
26305 32881 32882 28
26306 32881 32883 28
26307 32881 32884 28
26308 32881 32885 28
26309 32886 32887 28
26310 32886 32888 28
26311 32886 32889 28
26312 32886 32890 28
26313 32891 32892 28
26314 32891 32893 28
26315 32891 32894 28
26316 32891 32895 28
26317 32896 32897 28
26318 32896 32898 28
26319 32896 32899 28
26320 32896 32900 28
26321 32901 32902 28
26322 32901 32903 28
26323 32901 32904 28
26324 32901 32905 28
26325 32906 32907 28
26326 32906 32908 28
26327 32906 32909 28
26328 32906 32910 28
26329 32911 32912 28
26330 32911 32913 28
26331 32911 32914 28
26332 32911 32915 28
26333 32916 32917 28
26334 32916 32918 28
26335 32916 32919 28
26336 32916 32920 28
26337 32921 32922 28
26338 32921 32923 28
26339 32921 32924 28
26340 32921 32925 28
26341 32926 32927 28
26342 32926 32928 28
26343 32926 32929 28
26344 32926 32930 28
26345 32931 32932 28
26346 32931 32933 28
26347 32931 32934 28
26348 32931 32935 28
26349 32936 32937 28
26350 32936 32938 28
26351 32936 32939 28
26352 32936 32940 28
26353 32941 32942 28
26354 32941 32943 28
26355 32941 32944 28
26356 32941 32945 28
26357 32946 32947 28
26358 32946 32948 28
26359 32946 32949 28
26360 32946 32950 28
26361 32951 32952 28
26362 32951 32953 28
26363 32951 32954 28
26364 32951 32955 28
26365 32956 32957 28
26366 32956 32958 28
26367 32956 32959 28
26368 32956 32960 28
26369 32961 32962 28
26370 32961 32963 28
26371 32961 32964 28
26372 32961 32965 28
26373 32966 32967 28
26374 32966 32968 28
26375 32966 32969 28
26376 32966 32970 28
26377 32971 32972 28
26378 32971 32973 28
26379 32971 32974 28
26380 32971 32975 28
26381 32976 32977 28
26382 32976 32978 28
26383 32976 32979 28
26384 32976 32980 28
26385 32981 32982 28
26386 32981 32983 28
26387 32981 32984 28
26388 32981 32985 28
26389 32986 32987 28
26390 32986 32988 28
26391 32986 32989 28
26392 32986 32990 28
26393 32991 32992 28
26394 32991 32993 28
26395 32991 32994 28
26396 32991 32995 28
26397 32996 32997 28
26398 32996 32998 28
26399 32996 32999 28
26400 32996 33000 28
26401 33001 33002 28
26402 33001 33003 28
26403 33001 33004 28
26404 33001 33005 28
26405 33006 33007 28
26406 33006 33008 28
26407 33006 33009 28
26408 33006 33010 28
26409 33011 33012 28
26410 33011 33013 28
26411 33011 33014 28
26412 33011 33015 28
26413 33016 33017 28
26414 33016 33018 28
26415 33016 33019 28
26416 33016 33020 28
26417 33021 33022 28
26418 33021 33023 28
26419 33021 33024 28
26420 33021 33025 28
26421 33026 33027 28
26422 33026 33028 28
26423 33026 33029 28
26424 33026 33030 28
26425 33031 33032 28
26426 33031 33033 28
26427 33031 33034 28
26428 33031 33035 28
26429 33036 33037 28
26430 33036 33038 28
26431 33036 33039 28
26432 33036 33040 28
26433 33041 33042 28
26434 33041 33043 28
26435 33041 33044 28
26436 33041 33045 28
26437 33046 33047 28
26438 33046 33048 28
26439 33046 33049 28
26440 33046 33050 28
26441 33051 33052 28
26442 33051 33053 28
26443 33051 33054 28
26444 33051 33055 28
26445 33056 33057 28
26446 33056 33058 28
26447 33056 33059 28
26448 33056 33060 28
26449 33061 33062 28
26450 33061 33063 28
26451 33061 33064 28
26452 33061 33065 28
26453 33066 33067 28
26454 33066 33068 28
26455 33066 33069 28
26456 33066 33070 28
26457 33071 33072 28
26458 33071 33073 28
26459 33071 33074 28
26460 33071 33075 28
26461 33076 33077 28
26462 33076 33078 28
26463 33076 33079 28
26464 33076 33080 28
26465 33081 33082 28
26466 33081 33083 28
26467 33081 33084 28
26468 33081 33085 28
26469 33086 33087 28
26470 33086 33088 28
26471 33086 33089 28
26472 33086 33090 28
26473 33091 33092 28
26474 33091 33093 28
26475 33091 33094 28
26476 33091 33095 28
26477 33096 33097 28
26478 33096 33098 28
26479 33096 33099 28
26480 33096 33100 28
26481 33101 33102 28
26482 33101 33103 28
26483 33101 33104 28
26484 33101 33105 28
26485 33106 33107 28
26486 33106 33108 28
26487 33106 33109 28
26488 33106 33110 28
26489 33111 33112 28
26490 33111 33113 28
26491 33111 33114 28
26492 33111 33115 28
26493 33116 33117 28
26494 33116 33118 28
26495 33116 33119 28
26496 33116 33120 28
26497 33121 33122 28
26498 33121 33123 28
26499 33121 33124 28
26500 33121 33125 28
26501 33126 33127 28
26502 33126 33128 28
26503 33126 33129 28
26504 33126 33130 28
26505 33131 33132 28
26506 33131 33133 28
26507 33131 33134 28
26508 33131 33135 28
26509 33136 33137 28
26510 33136 33138 28
26511 33136 33139 28
26512 33136 33140 28
26513 33141 33142 28
26514 33141 33143 28
26515 33141 33144 28
26516 33141 33145 28
26517 33146 33147 28
26518 33146 33148 28
26519 33146 33149 28
26520 33146 33150 28
26521 33151 33152 28
26522 33151 33153 28
26523 33151 33154 28
26524 33151 33155 28
26525 33156 33157 28
26526 33156 33158 28
26527 33156 33159 28
26528 33156 33160 28
26529 33161 33162 28
26530 33161 33163 28
26531 33161 33164 28
26532 33161 33165 28
26533 33166 33167 28
26534 33166 33168 28
26535 33166 33169 28
26536 33166 33170 28
26537 33171 33172 28
26538 33171 33173 28
26539 33171 33174 28
26540 33171 33175 28
26541 33176 33177 28
26542 33176 33178 28
26543 33176 33179 28
26544 33176 33180 28
26545 33181 33182 28
26546 33181 33183 28
26547 33181 33184 28
26548 33181 33185 28
26549 33186 33187 28
26550 33186 33188 28
26551 33186 33189 28
26552 33186 33190 28
26553 33191 33192 28
26554 33191 33193 28
26555 33191 33194 28
26556 33191 33195 28
26557 33196 33197 28
26558 33196 33198 28
26559 33196 33199 28
26560 33196 33200 28
26561 33201 33202 28
26562 33201 33203 28
26563 33201 33204 28
26564 33201 33205 28
26565 33206 33207 28
26566 33206 33208 28
26567 33206 33209 28
26568 33206 33210 28
26569 33211 33212 28
26570 33211 33213 28
26571 33211 33214 28
26572 33211 33215 28
26573 33216 33217 28
26574 33216 33218 28
26575 33216 33219 28
26576 33216 33220 28
26577 33221 33222 28
26578 33221 33223 28
26579 33221 33224 28
26580 33221 33225 28
26581 33226 33227 28
26582 33226 33228 28
26583 33226 33229 28
26584 33226 33230 28
26585 33231 33232 28
26586 33231 33233 28
26587 33231 33234 28
26588 33231 33235 28
26589 33236 33237 28
26590 33236 33238 28
26591 33236 33239 28
26592 33236 33240 28
26593 33241 33242 28
26594 33241 33243 28
26595 33241 33244 28
26596 33241 33245 28
26597 33246 33247 28
26598 33246 33248 28
26599 33246 33249 28
26600 33246 33250 28
26601 33251 33252 28
26602 33251 33253 28
26603 33251 33254 28
26604 33251 33255 28
26605 33256 33257 28
26606 33256 33258 28
26607 33256 33259 28
26608 33256 33260 28
26609 33261 33262 28
26610 33261 33263 28
26611 33261 33264 28
26612 33261 33265 28
26613 33266 33267 28
26614 33266 33268 28
26615 33266 33269 28
26616 33266 33270 28
26617 33271 33272 28
26618 33271 33273 28
26619 33271 33274 28
26620 33271 33275 28
26621 33276 33277 28
26622 33276 33278 28
26623 33276 33279 28
26624 33276 33280 28
26625 33281 33282 28
26626 33281 33283 28
26627 33281 33284 28
26628 33281 33285 28
26629 33286 33287 28
26630 33286 33288 28
26631 33286 33289 28
26632 33286 33290 28
26633 33291 33292 28
26634 33291 33293 28
26635 33291 33294 28
26636 33291 33295 28
26637 33296 33297 28
26638 33296 33298 28
26639 33296 33299 28
26640 33296 33300 28
26641 33301 33302 28
26642 33301 33303 28
26643 33301 33304 28
26644 33301 33305 28
26645 33306 33307 28
26646 33306 33308 28
26647 33306 33309 28
26648 33306 33310 28
26649 33311 33312 28
26650 33311 33313 28
26651 33311 33314 28
26652 33311 33315 28
26653 33316 33317 28
26654 33316 33318 28
26655 33316 33319 28
26656 33316 33320 28
26657 33321 33322 28
26658 33321 33323 28
26659 33321 33324 28
26660 33321 33325 28
26661 33326 33327 28
26662 33326 33328 28
26663 33326 33329 28
26664 33326 33330 28
26665 33331 33332 28
26666 33331 33333 28
26667 33331 33334 28
26668 33331 33335 28
26669 33336 33337 28
26670 33336 33338 28
26671 33336 33339 28
26672 33336 33340 28
26673 33341 33342 28
26674 33341 33343 28
26675 33341 33344 28
26676 33341 33345 28
26677 33346 33347 28
26678 33346 33348 28
26679 33346 33349 28
26680 33346 33350 28
26681 33351 33352 28
26682 33351 33353 28
26683 33351 33354 28
26684 33351 33355 28
26685 33356 33357 28
26686 33356 33358 28
26687 33356 33359 28
26688 33356 33360 28
26689 33361 33362 28
26690 33361 33363 28
26691 33361 33364 28
26692 33361 33365 28
26693 33366 33367 28
26694 33366 33368 28
26695 33366 33369 28
26696 33366 33370 28
26697 33371 33372 28
26698 33371 33373 28
26699 33371 33374 28
26700 33371 33375 28
26701 33376 33377 28
26702 33376 33378 28
26703 33376 33379 28
26704 33376 33380 28
26705 33381 33382 28
26706 33381 33383 28
26707 33381 33384 28
26708 33381 33385 28
26709 33386 33387 28
26710 33386 33388 28
26711 33386 33389 28
26712 33386 33390 28
26713 33391 33392 28
26714 33391 33393 28
26715 33391 33394 28
26716 33391 33395 28
26717 33396 33397 28
26718 33396 33398 28
26719 33396 33399 28
26720 33396 33400 28
26721 33401 33402 28
26722 33401 33403 28
26723 33401 33404 28
26724 33401 33405 28
26725 33406 33407 28
26726 33406 33408 28
26727 33406 33409 28
26728 33406 33410 28
26729 33411 33412 28
26730 33411 33413 28
26731 33411 33414 28
26732 33411 33415 28
26733 33416 33417 28
26734 33416 33418 28
26735 33416 33419 28
26736 33416 33420 28
26737 33421 33422 28
26738 33421 33423 28
26739 33421 33424 28
26740 33421 33425 28
26741 33426 33427 28
26742 33426 33428 28
26743 33426 33429 28
26744 33426 33430 28
26745 33431 33432 28
26746 33431 33433 28
26747 33431 33434 28
26748 33431 33435 28
26749 33436 33437 28
26750 33436 33438 28
26751 33436 33439 28
26752 33436 33440 28
26753 33441 33442 28
26754 33441 33443 28
26755 33441 33444 28
26756 33441 33445 28
26757 33446 33447 28
26758 33446 33448 28
26759 33446 33449 28
26760 33446 33450 28
26761 33451 33452 28
26762 33451 33453 28
26763 33451 33454 28
26764 33451 33455 28
26765 33456 33457 28
26766 33456 33458 28
26767 33456 33459 28
26768 33456 33460 28
26769 33461 33462 28
26770 33461 33463 28
26771 33461 33464 28
26772 33461 33465 28
26773 33466 33467 28
26774 33466 33468 28
26775 33466 33469 28
26776 33466 33470 28
26777 33471 33472 28
26778 33471 33473 28
26779 33471 33474 28
26780 33471 33475 28
26781 33476 33477 28
26782 33476 33478 28
26783 33476 33479 28
26784 33476 33480 28
26785 33481 33482 28
26786 33481 33483 28
26787 33481 33484 28
26788 33481 33485 28
26789 33486 33487 28
26790 33486 33488 28
26791 33486 33489 28
26792 33486 33490 28
26793 33491 33492 28
26794 33491 33493 28
26795 33491 33494 28
26796 33491 33495 28
26797 33496 33497 28
26798 33496 33498 28
26799 33496 33499 28
26800 33496 33500 28
26801 33501 33502 28
26802 33501 33503 28
26803 33501 33504 28
26804 33501 33505 28
26805 33506 33507 28
26806 33506 33508 28
26807 33506 33509 28
26808 33506 33510 28
26809 33511 33512 28
26810 33511 33513 28
26811 33511 33514 28
26812 33511 33515 28
26813 33516 33517 28
26814 33516 33518 28
26815 33516 33519 28
26816 33516 33520 28
26817 33521 33522 28
26818 33521 33523 28
26819 33521 33524 28
26820 33521 33525 28
26821 33526 33527 28
26822 33526 33528 28
26823 33526 33529 28
26824 33526 33530 28
26825 33531 33532 28
26826 33531 33533 28
26827 33531 33534 28
26828 33531 33535 28
26829 33536 33537 28
26830 33536 33538 28
26831 33536 33539 28
26832 33536 33540 28
26833 33541 33542 28
26834 33541 33543 28
26835 33541 33544 28
26836 33541 33545 28
26837 33546 33547 28
26838 33546 33548 28
26839 33546 33549 28
26840 33546 33550 28
26841 33551 33552 28
26842 33551 33553 28
26843 33551 33554 28
26844 33551 33555 28
26845 33556 33557 28
26846 33556 33558 28
26847 33556 33559 28
26848 33556 33560 28
26849 33561 33562 28
26850 33561 33563 28
26851 33561 33564 28
26852 33561 33565 28
26853 33566 33567 28
26854 33566 33568 28
26855 33566 33569 28
26856 33566 33570 28
26857 33571 33572 28
26858 33571 33573 28
26859 33571 33574 28
26860 33571 33575 28
26861 33576 33577 28
26862 33576 33578 28
26863 33576 33579 28
26864 33576 33580 28
26865 33581 33582 28
26866 33581 33583 28
26867 33581 33584 28
26868 33581 33585 28
26869 33586 33587 28
26870 33586 33588 28
26871 33586 33589 28
26872 33586 33590 28
26873 33591 33592 28
26874 33591 33593 28
26875 33591 33594 28
26876 33591 33595 28
26877 33596 33597 28
26878 33596 33598 28
26879 33596 33599 28
26880 33596 33600 28
26881 33601 33602 28
26882 33601 33603 28
26883 33601 33604 28
26884 33601 33605 28
26885 33606 33607 28
26886 33606 33608 28
26887 33606 33609 28
26888 33606 33610 28
26889 33611 33612 28
26890 33611 33613 28
26891 33611 33614 28
26892 33611 33615 28
26893 33616 33617 28
26894 33616 33618 28
26895 33616 33619 28
26896 33616 33620 28
26897 33621 33622 28
26898 33621 33623 28
26899 33621 33624 28
26900 33621 33625 28
26901 33626 33627 28
26902 33626 33628 28
26903 33626 33629 28
26904 33626 33630 28
26905 33631 33632 28
26906 33631 33633 28
26907 33631 33634 28
26908 33631 33635 28
26909 33636 33637 28
26910 33636 33638 28
26911 33636 33639 28
26912 33636 33640 28
26913 33641 33642 28
26914 33641 33643 28
26915 33641 33644 28
26916 33641 33645 28
26917 33646 33647 28
26918 33646 33648 28
26919 33646 33649 28
26920 33646 33650 28
26921 33651 33652 28
26922 33651 33653 28
26923 33651 33654 28
26924 33651 33655 28
26925 33656 33657 28
26926 33656 33658 28
26927 33656 33659 28
26928 33656 33660 28
26929 33661 33662 28
26930 33661 33663 28
26931 33661 33664 28
26932 33661 33665 28
26933 33666 33667 28
26934 33666 33668 28
26935 33666 33669 28
26936 33666 33670 28
26937 33671 33672 28
26938 33671 33673 28
26939 33671 33674 28
26940 33671 33675 28
26941 33676 33677 28
26942 33676 33678 28
26943 33676 33679 28
26944 33676 33680 28
26945 33681 33682 28
26946 33681 33683 28
26947 33681 33684 28
26948 33681 33685 28
26949 33686 33687 28
26950 33686 33688 28
26951 33686 33689 28
26952 33686 33690 28
26953 33691 33692 28
26954 33691 33693 28
26955 33691 33694 28
26956 33691 33695 28
26957 33696 33697 28
26958 33696 33698 28
26959 33696 33699 28
26960 33696 33700 28
26961 33701 33702 28
26962 33701 33703 28
26963 33701 33704 28
26964 33701 33705 28
26965 33706 33707 28
26966 33706 33708 28
26967 33706 33709 28
26968 33706 33710 28
26969 33711 33712 28
26970 33711 33713 28
26971 33711 33714 28
26972 33711 33715 28
26973 33716 33717 28
26974 33716 33718 28
26975 33716 33719 28
26976 33716 33720 28
26977 33721 33722 28
26978 33721 33723 28
26979 33721 33724 28
26980 33721 33725 28
26981 33726 33727 28
26982 33726 33728 28
26983 33726 33729 28
26984 33726 33730 28
26985 33731 33732 28
26986 33731 33733 28
26987 33731 33734 28
26988 33731 33735 28
26989 33736 33737 28
26990 33736 33738 28
26991 33736 33739 28
26992 33736 33740 28
26993 33741 33742 28
26994 33741 33743 28
26995 33741 33744 28
26996 33741 33745 28
26997 33746 33747 28
26998 33746 33748 28
26999 33746 33749 28
27000 33746 33750 28
27001 33751 33752 28
27002 33751 33753 28
27003 33751 33754 28
27004 33751 33755 28
27005 33756 33757 28
27006 33756 33758 28
27007 33756 33759 28
27008 33756 33760 28
27009 33761 33762 28
27010 33761 33763 28
27011 33761 33764 28
27012 33761 33765 28
27013 33766 33767 28
27014 33766 33768 28
27015 33766 33769 28
27016 33766 33770 28
27017 33771 33772 28
27018 33771 33773 28
27019 33771 33774 28
27020 33771 33775 28
27021 33776 33777 28
27022 33776 33778 28
27023 33776 33779 28
27024 33776 33780 28
27025 33781 33782 28
27026 33781 33783 28
27027 33781 33784 28
27028 33781 33785 28
27029 33786 33787 28
27030 33786 33788 28
27031 33786 33789 28
27032 33786 33790 28
27033 33791 33792 28
27034 33791 33793 28
27035 33791 33794 28
27036 33791 33795 28
27037 33796 33797 28
27038 33796 33798 28
27039 33796 33799 28
27040 33796 33800 28
27041 33801 33802 28
27042 33801 33803 28
27043 33801 33804 28
27044 33801 33805 28
27045 33806 33807 28
27046 33806 33808 28
27047 33806 33809 28
27048 33806 33810 28
27049 33811 33812 28
27050 33811 33813 28
27051 33811 33814 28
27052 33811 33815 28
27053 33816 33817 28
27054 33816 33818 28
27055 33816 33819 28
27056 33816 33820 28
27057 33821 33822 28
27058 33821 33823 28
27059 33821 33824 28
27060 33821 33825 28
27061 33826 33827 28
27062 33826 33828 28
27063 33826 33829 28
27064 33826 33830 28
27065 33831 33832 28
27066 33831 33833 28
27067 33831 33834 28
27068 33831 33835 28
27069 33836 33837 28
27070 33836 33838 28
27071 33836 33839 28
27072 33836 33840 28
27073 33841 33842 28
27074 33841 33843 28
27075 33841 33844 28
27076 33841 33845 28
27077 33846 33847 28
27078 33846 33848 28
27079 33846 33849 28
27080 33846 33850 28
27081 33851 33852 28
27082 33851 33853 28
27083 33851 33854 28
27084 33851 33855 28
27085 33856 33857 28
27086 33856 33858 28
27087 33856 33859 28
27088 33856 33860 28
27089 33861 33862 28
27090 33861 33863 28
27091 33861 33864 28
27092 33861 33865 28
27093 33866 33867 28
27094 33866 33868 28
27095 33866 33869 28
27096 33866 33870 28
27097 33871 33872 28
27098 33871 33873 28
27099 33871 33874 28
27100 33871 33875 28
27101 33876 33877 28
27102 33876 33878 28
27103 33876 33879 28
27104 33876 33880 28
27105 33881 33882 28
27106 33881 33883 28
27107 33881 33884 28
27108 33881 33885 28
27109 33886 33887 28
27110 33886 33888 28
27111 33886 33889 28
27112 33886 33890 28
27113 33891 33892 28
27114 33891 33893 28
27115 33891 33894 28
27116 33891 33895 28
27117 33896 33897 28
27118 33896 33898 28
27119 33896 33899 28
27120 33896 33900 28
27121 33901 33902 28
27122 33901 33903 28
27123 33901 33904 28
27124 33901 33905 28
27125 33906 33907 28
27126 33906 33908 28
27127 33906 33909 28
27128 33906 33910 28
27129 33911 33912 28
27130 33911 33913 28
27131 33911 33914 28
27132 33911 33915 28
27133 33916 33917 28
27134 33916 33918 28
27135 33916 33919 28
27136 33916 33920 28
27137 33921 33922 28
27138 33921 33923 28
27139 33921 33924 28
27140 33921 33925 28
27141 33926 33927 28
27142 33926 33928 28
27143 33926 33929 28
27144 33926 33930 28
27145 33931 33932 28
27146 33931 33933 28
27147 33931 33934 28
27148 33931 33935 28
27149 33936 33937 28
27150 33936 33938 28
27151 33936 33939 28
27152 33936 33940 28
27153 33941 33942 28
27154 33941 33943 28
27155 33941 33944 28
27156 33941 33945 28
27157 33946 33947 28
27158 33946 33948 28
27159 33946 33949 28
27160 33946 33950 28
27161 33951 33952 28
27162 33951 33953 28
27163 33951 33954 28
27164 33951 33955 28
27165 33956 33957 28
27166 33956 33958 28
27167 33956 33959 28
27168 33956 33960 28
27169 33961 33962 28
27170 33961 33963 28
27171 33961 33964 28
27172 33961 33965 28
27173 33966 33967 28
27174 33966 33968 28
27175 33966 33969 28
27176 33966 33970 28
27177 33971 33972 28
27178 33971 33973 28
27179 33971 33974 28
27180 33971 33975 28
27181 33976 33977 28
27182 33976 33978 28
27183 33976 33979 28
27184 33976 33980 28
27185 33981 33982 28
27186 33981 33983 28
27187 33981 33984 28
27188 33981 33985 28
27189 33986 33987 28
27190 33986 33988 28
27191 33986 33989 28
27192 33986 33990 28
27193 33991 33992 28
27194 33991 33993 28
27195 33991 33994 28
27196 33991 33995 28
27197 33996 33997 28
27198 33996 33998 28
27199 33996 33999 28
27200 33996 34000 28
27201 34001 34002 28
27202 34001 34003 28
27203 34001 34004 28
27204 34001 34005 28
27205 34006 34007 28
27206 34006 34008 28
27207 34006 34009 28
27208 34006 34010 28
27209 34011 34012 28
27210 34011 34013 28
27211 34011 34014 28
27212 34011 34015 28
27213 34016 34017 28
27214 34016 34018 28
27215 34016 34019 28
27216 34016 34020 28
27217 34021 34022 28
27218 34021 34023 28
27219 34021 34024 28
27220 34021 34025 28
27221 34026 34027 28
27222 34026 34028 28
27223 34026 34029 28
27224 34026 34030 28
27225 34031 34032 28
27226 34031 34033 28
27227 34031 34034 28
27228 34031 34035 28
27229 34036 34037 28
27230 34036 34038 28
27231 34036 34039 28
27232 34036 34040 28
27233 34041 34042 28
27234 34041 34043 28
27235 34041 34044 28
27236 34041 34045 28
27237 34046 34047 28
27238 34046 34048 28
27239 34046 34049 28
27240 34046 34050 28
27241 34051 34052 28
27242 34051 34053 28
27243 34051 34054 28
27244 34051 34055 28
27245 34056 34057 28
27246 34056 34058 28
27247 34056 34059 28
27248 34056 34060 28
27249 34061 34062 28
27250 34061 34063 28
27251 34061 34064 28
27252 34061 34065 28
27253 34066 34067 28
27254 34066 34068 28
27255 34066 34069 28
27256 34066 34070 28
27257 34071 34072 28
27258 34071 34073 28
27259 34071 34074 28
27260 34071 34075 28
27261 34076 34077 28
27262 34076 34078 28
27263 34076 34079 28
27264 34076 34080 28
27265 34081 34082 28
27266 34081 34083 28
27267 34081 34084 28
27268 34081 34085 28
27269 34086 34087 28
27270 34086 34088 28
27271 34086 34089 28
27272 34086 34090 28
27273 34091 34092 28
27274 34091 34093 28
27275 34091 34094 28
27276 34091 34095 28
27277 34096 34097 28
27278 34096 34098 28
27279 34096 34099 28
27280 34096 34100 28
27281 34101 34102 28
27282 34101 34103 28
27283 34101 34104 28
27284 34101 34105 28
27285 34106 34107 28
27286 34106 34108 28
27287 34106 34109 28
27288 34106 34110 28
27289 34111 34112 28
27290 34111 34113 28
27291 34111 34114 28
27292 34111 34115 28
27293 34116 34117 28
27294 34116 34118 28
27295 34116 34119 28
27296 34116 34120 28
27297 34121 34122 28
27298 34121 34123 28
27299 34121 34124 28
27300 34121 34125 28
27301 34126 34127 28
27302 34126 34128 28
27303 34126 34129 28
27304 34126 34130 28
27305 34131 34132 28
27306 34131 34133 28
27307 34131 34134 28
27308 34131 34135 28
27309 34136 34137 28
27310 34136 34138 28
27311 34136 34139 28
27312 34136 34140 28
27313 34141 34142 28
27314 34141 34143 28
27315 34141 34144 28
27316 34141 34145 28
27317 34146 34147 28
27318 34146 34148 28
27319 34146 34149 28
27320 34146 34150 28
27321 34151 34152 28
27322 34151 34153 28
27323 34151 34154 28
27324 34151 34155 28
27325 34156 34157 28
27326 34156 34158 28
27327 34156 34159 28
27328 34156 34160 28
27329 34161 34162 28
27330 34161 34163 28
27331 34161 34164 28
27332 34161 34165 28
27333 34166 34167 28
27334 34166 34168 28
27335 34166 34169 28
27336 34166 34170 28
27337 34171 34172 28
27338 34171 34173 28
27339 34171 34174 28
27340 34171 34175 28
27341 34176 34177 28
27342 34176 34178 28
27343 34176 34179 28
27344 34176 34180 28
27345 34181 34182 28
27346 34181 34183 28
27347 34181 34184 28
27348 34181 34185 28
27349 34186 34187 28
27350 34186 34188 28
27351 34186 34189 28
27352 34186 34190 28
27353 34191 34192 28
27354 34191 34193 28
27355 34191 34194 28
27356 34191 34195 28
27357 34196 34197 28
27358 34196 34198 28
27359 34196 34199 28
27360 34196 34200 28
27361 34201 34202 28
27362 34201 34203 28
27363 34201 34204 28
27364 34201 34205 28
27365 34206 34207 28
27366 34206 34208 28
27367 34206 34209 28
27368 34206 34210 28
27369 34211 34212 28
27370 34211 34213 28
27371 34211 34214 28
27372 34211 34215 28
27373 34216 34217 28
27374 34216 34218 28
27375 34216 34219 28
27376 34216 34220 28
27377 34221 34222 28
27378 34221 34223 28
27379 34221 34224 28
27380 34221 34225 28
27381 34226 34227 28
27382 34226 34228 28
27383 34226 34229 28
27384 34226 34230 28
27385 34231 34232 28
27386 34231 34233 28
27387 34231 34234 28
27388 34231 34235 28
27389 34236 34237 28
27390 34236 34238 28
27391 34236 34239 28
27392 34236 34240 28
27393 34241 34242 28
27394 34241 34243 28
27395 34241 34244 28
27396 34241 34245 28
27397 34246 34247 28
27398 34246 34248 28
27399 34246 34249 28
27400 34246 34250 28
27401 34251 34252 28
27402 34251 34253 28
27403 34251 34254 28
27404 34251 34255 28
27405 34256 34257 28
27406 34256 34258 28
27407 34256 34259 28
27408 34256 34260 28
27409 34261 34262 28
27410 34261 34263 28
27411 34261 34264 28
27412 34261 34265 28
27413 34266 34267 28
27414 34266 34268 28
27415 34266 34269 28
27416 34266 34270 28
27417 34271 34272 28
27418 34271 34273 28
27419 34271 34274 28
27420 34271 34275 28
27421 34276 34277 28
27422 34276 34278 28
27423 34276 34279 28
27424 34276 34280 28
27425 34281 34282 28
27426 34281 34283 28
27427 34281 34284 28
27428 34281 34285 28
27429 34286 34287 28
27430 34286 34288 28
27431 34286 34289 28
27432 34286 34290 28
27433 34291 34292 28
27434 34291 34293 28
27435 34291 34294 28
27436 34291 34295 28
27437 34296 34297 28
27438 34296 34298 28
27439 34296 34299 28
27440 34296 34300 28
27441 34301 34302 28
27442 34301 34303 28
27443 34301 34304 28
27444 34301 34305 28
27445 34306 34307 28
27446 34306 34308 28
27447 34306 34309 28
27448 34306 34310 28
27449 34311 34312 28
27450 34311 34313 28
27451 34311 34314 28
27452 34311 34315 28
27453 34316 34317 28
27454 34316 34318 28
27455 34316 34319 28
27456 34316 34320 28
27457 34321 34322 28
27458 34321 34323 28
27459 34321 34324 28
27460 34321 34325 28
27461 34326 34327 28
27462 34326 34328 28
27463 34326 34329 28
27464 34326 34330 28
27465 34331 34332 28
27466 34331 34333 28
27467 34331 34334 28
27468 34331 34335 28
27469 34336 34337 28
27470 34336 34338 28
27471 34336 34339 28
27472 34336 34340 28
27473 34341 34342 28
27474 34341 34343 28
27475 34341 34344 28
27476 34341 34345 28
27477 34346 34347 28
27478 34346 34348 28
27479 34346 34349 28
27480 34346 34350 28
27481 34351 34352 28
27482 34351 34353 28
27483 34351 34354 28
27484 34351 34355 28
27485 34356 34357 28
27486 34356 34358 28
27487 34356 34359 28
27488 34356 34360 28
27489 34361 34362 28
27490 34361 34363 28
27491 34361 34364 28
27492 34361 34365 28
27493 34366 34367 28
27494 34366 34368 28
27495 34366 34369 28
27496 34366 34370 28
27497 34371 34372 28
27498 34371 34373 28
27499 34371 34374 28
27500 34371 34375 28
27501 34376 34377 28
27502 34376 34378 28
27503 34376 34379 28
27504 34376 34380 28
27505 34381 34382 28
27506 34381 34383 28
27507 34381 34384 28
27508 34381 34385 28
27509 34386 34387 28
27510 34386 34388 28
27511 34386 34389 28
27512 34386 34390 28
27513 34391 34392 28
27514 34391 34393 28
27515 34391 34394 28
27516 34391 34395 28
27517 34396 34397 28
27518 34396 34398 28
27519 34396 34399 28
27520 34396 34400 28
27521 34401 34402 28
27522 34401 34403 28
27523 34401 34404 28
27524 34401 34405 28
27525 34406 34407 28
27526 34406 34408 28
27527 34406 34409 28
27528 34406 34410 28
27529 34411 34412 28
27530 34411 34413 28
27531 34411 34414 28
27532 34411 34415 28
27533 34416 34417 28
27534 34416 34418 28
27535 34416 34419 28
27536 34416 34420 28
27537 34421 34422 28
27538 34421 34423 28
27539 34421 34424 28
27540 34421 34425 28
27541 34426 34427 28
27542 34426 34428 28
27543 34426 34429 28
27544 34426 34430 28
27545 34431 34432 28
27546 34431 34433 28
27547 34431 34434 28
27548 34431 34435 28
27549 34436 34437 28
27550 34436 34438 28
27551 34436 34439 28
27552 34436 34440 28
27553 34441 34442 28
27554 34441 34443 28
27555 34441 34444 28
27556 34441 34445 28
27557 34446 34447 28
27558 34446 34448 28
27559 34446 34449 28
27560 34446 34450 28
27561 34451 34452 28
27562 34451 34453 28
27563 34451 34454 28
27564 34451 34455 28
27565 34456 34457 28
27566 34456 34458 28
27567 34456 34459 28
27568 34456 34460 28
27569 34461 34462 28
27570 34461 34463 28
27571 34461 34464 28
27572 34461 34465 28
27573 34466 34467 28
27574 34466 34468 28
27575 34466 34469 28
27576 34466 34470 28
27577 34471 34472 28
27578 34471 34473 28
27579 34471 34474 28
27580 34471 34475 28
27581 34476 34477 28
27582 34476 34478 28
27583 34476 34479 28
27584 34476 34480 28
27585 34481 34482 28
27586 34481 34483 28
27587 34481 34484 28
27588 34481 34485 28
27589 34486 34487 28
27590 34486 34488 28
27591 34486 34489 28
27592 34486 34490 28
27593 34491 34492 28
27594 34491 34493 28
27595 34491 34494 28
27596 34491 34495 28
27597 34496 34497 28
27598 34496 34498 28
27599 34496 34499 28
27600 34496 34500 28
27601 34501 34502 28
27602 34501 34503 28
27603 34501 34504 28
27604 34501 34505 28
27605 34506 34507 28
27606 34506 34508 28
27607 34506 34509 28
27608 34506 34510 28
27609 34511 34512 28
27610 34511 34513 28
27611 34511 34514 28
27612 34511 34515 28
27613 34516 34517 28
27614 34516 34518 28
27615 34516 34519 28
27616 34516 34520 28
27617 34521 34522 28
27618 34521 34523 28
27619 34521 34524 28
27620 34521 34525 28
27621 34526 34527 28
27622 34526 34528 28
27623 34526 34529 28
27624 34526 34530 28
27625 34531 34532 28
27626 34531 34533 28
27627 34531 34534 28
27628 34531 34535 28
27629 34536 34537 28
27630 34536 34538 28
27631 34536 34539 28
27632 34536 34540 28
27633 34541 34542 28
27634 34541 34543 28
27635 34541 34544 28
27636 34541 34545 28
27637 34546 34547 28
27638 34546 34548 28
27639 34546 34549 28
27640 34546 34550 28
27641 34551 34552 28
27642 34551 34553 28
27643 34551 34554 28
27644 34551 34555 28
27645 34556 34557 28
27646 34556 34558 28
27647 34556 34559 28
27648 34556 34560 28
27649 34561 34562 28
27650 34561 34563 28
27651 34561 34564 28
27652 34561 34565 28
27653 34566 34567 28
27654 34566 34568 28
27655 34566 34569 28
27656 34566 34570 28
27657 34571 34572 28
27658 34571 34573 28
27659 34571 34574 28
27660 34571 34575 28
27661 34576 34577 28
27662 34576 34578 28
27663 34576 34579 28
27664 34576 34580 28
27665 34581 34582 28
27666 34581 34583 28
27667 34581 34584 28
27668 34581 34585 28
27669 34586 34587 28
27670 34586 34588 28
27671 34586 34589 28
27672 34586 34590 28
27673 34591 34592 28
27674 34591 34593 28
27675 34591 34594 28
27676 34591 34595 28
27677 34596 34597 28
27678 34596 34598 28
27679 34596 34599 28
27680 34596 34600 28
27681 34601 34602 28
27682 34601 34603 28
27683 34601 34604 28
27684 34601 34605 28
27685 34606 34607 28
27686 34606 34608 28
27687 34606 34609 28
27688 34606 34610 28
27689 34611 34612 28
27690 34611 34613 28
27691 34611 34614 28
27692 34611 34615 28
27693 34616 34617 28
27694 34616 34618 28
27695 34616 34619 28
27696 34616 34620 28
27697 34621 34622 28
27698 34621 34623 28
27699 34621 34624 28
27700 34621 34625 28
27701 34626 34627 28
27702 34626 34628 28
27703 34626 34629 28
27704 34626 34630 28
27705 34631 34632 28
27706 34631 34633 28
27707 34631 34634 28
27708 34631 34635 28
27709 34636 34637 28
27710 34636 34638 28
27711 34636 34639 28
27712 34636 34640 28
27713 34641 34642 28
27714 34641 34643 28
27715 34641 34644 28
27716 34641 34645 28
27717 34646 34647 28
27718 34646 34648 28
27719 34646 34649 28
27720 34646 34650 28
27721 34651 34652 28
27722 34651 34653 28
27723 34651 34654 28
27724 34651 34655 28
27725 34656 34657 28
27726 34656 34658 28
27727 34656 34659 28
27728 34656 34660 28
27729 34661 34662 28
27730 34661 34663 28
27731 34661 34664 28
27732 34661 34665 28
27733 34666 34667 28
27734 34666 34668 28
27735 34666 34669 28
27736 34666 34670 28
27737 34671 34672 28
27738 34671 34673 28
27739 34671 34674 28
27740 34671 34675 28
27741 34676 34677 28
27742 34676 34678 28
27743 34676 34679 28
27744 34676 34680 28
27745 34681 34682 28
27746 34681 34683 28
27747 34681 34684 28
27748 34681 34685 28
27749 34686 34687 28
27750 34686 34688 28
27751 34686 34689 28
27752 34686 34690 28
27753 34691 34692 28
27754 34691 34693 28
27755 34691 34694 28
27756 34691 34695 28
27757 34696 34697 28
27758 34696 34698 28
27759 34696 34699 28
27760 34696 34700 28
27761 34701 34702 28
27762 34701 34703 28
27763 34701 34704 28
27764 34701 34705 28
27765 34706 34707 28
27766 34706 34708 28
27767 34706 34709 28
27768 34706 34710 28
27769 34711 34712 28
27770 34711 34713 28
27771 34711 34714 28
27772 34711 34715 28
27773 34716 34717 28
27774 34716 34718 28
27775 34716 34719 28
27776 34716 34720 28
27777 34721 34722 28
27778 34721 34723 28
27779 34721 34724 28
27780 34721 34725 28
27781 34726 34727 28
27782 34726 34728 28
27783 34726 34729 28
27784 34726 34730 28
27785 34731 34732 28
27786 34731 34733 28
27787 34731 34734 28
27788 34731 34735 28
27789 34736 34737 28
27790 34736 34738 28
27791 34736 34739 28
27792 34736 34740 28
27793 34741 34742 28
27794 34741 34743 28
27795 34741 34744 28
27796 34741 34745 28
27797 34746 34747 28
27798 34746 34748 28
27799 34746 34749 28
27800 34746 34750 28
27801 34751 34752 28
27802 34751 34753 28
27803 34751 34754 28
27804 34751 34755 28
27805 34756 34757 28
27806 34756 34758 28
27807 34756 34759 28
27808 34756 34760 28
27809 34761 34762 28
27810 34761 34763 28
27811 34761 34764 28
27812 34761 34765 28
27813 34766 34767 28
27814 34766 34768 28
27815 34766 34769 28
27816 34766 34770 28
27817 34771 34772 28
27818 34771 34773 28
27819 34771 34774 28
27820 34771 34775 28
27821 34776 34777 28
27822 34776 34778 28
27823 34776 34779 28
27824 34776 34780 28
27825 34781 34782 28
27826 34781 34783 28
27827 34781 34784 28
27828 34781 34785 28
27829 34786 34787 28
27830 34786 34788 28
27831 34786 34789 28
27832 34786 34790 28
27833 34791 34792 28
27834 34791 34793 28
27835 34791 34794 28
27836 34791 34795 28
27837 34796 34797 28
27838 34796 34798 28
27839 34796 34799 28
27840 34796 34800 28
27841 34801 34802 28
27842 34801 34803 28
27843 34801 34804 28
27844 34801 34805 28
27845 34806 34807 28
27846 34806 34808 28
27847 34806 34809 28
27848 34806 34810 28
27849 34811 34812 28
27850 34811 34813 28
27851 34811 34814 28
27852 34811 34815 28
27853 34816 34817 28
27854 34816 34818 28
27855 34816 34819 28
27856 34816 34820 28
27857 34821 34822 28
27858 34821 34823 28
27859 34821 34824 28
27860 34821 34825 28
27861 34826 34827 28
27862 34826 34828 28
27863 34826 34829 28
27864 34826 34830 28
27865 34831 34832 28
27866 34831 34833 28
27867 34831 34834 28
27868 34831 34835 28
27869 34836 34837 28
27870 34836 34838 28
27871 34836 34839 28
27872 34836 34840 28
27873 34841 34842 28
27874 34841 34843 28
27875 34841 34844 28
27876 34841 34845 28
27877 34846 34847 28
27878 34846 34848 28
27879 34846 34849 28
27880 34846 34850 28
27881 34851 34852 28
27882 34851 34853 28
27883 34851 34854 28
27884 34851 34855 28
27885 34856 34857 28
27886 34856 34858 28
27887 34856 34859 28
27888 34856 34860 28
27889 34861 34862 28
27890 34861 34863 28
27891 34861 34864 28
27892 34861 34865 28
27893 34866 34867 28
27894 34866 34868 28
27895 34866 34869 28
27896 34866 34870 28
27897 34871 34872 28
27898 34871 34873 28
27899 34871 34874 28
27900 34871 34875 28
27901 34876 34877 28
27902 34876 34878 28
27903 34876 34879 28
27904 34876 34880 28
27905 34881 34882 28
27906 34881 34883 28
27907 34881 34884 28
27908 34881 34885 28
27909 34886 34887 28
27910 34886 34888 28
27911 34886 34889 28
27912 34886 34890 28
27913 34891 34892 28
27914 34891 34893 28
27915 34891 34894 28
27916 34891 34895 28
27917 34896 34897 28
27918 34896 34898 28
27919 34896 34899 28
27920 34896 34900 28
27921 34901 34902 28
27922 34901 34903 28
27923 34901 34904 28
27924 34901 34905 28
27925 34906 34907 28
27926 34906 34908 28
27927 34906 34909 28
27928 34906 34910 28
27929 34911 34912 28
27930 34911 34913 28
27931 34911 34914 28
27932 34911 34915 28
27933 34916 34917 28
27934 34916 34918 28
27935 34916 34919 28
27936 34916 34920 28
27937 34921 34922 28
27938 34921 34923 28
27939 34921 34924 28
27940 34921 34925 28
27941 34926 34927 28
27942 34926 34928 28
27943 34926 34929 28
27944 34926 34930 28
27945 34931 34932 28
27946 34931 34933 28
27947 34931 34934 28
27948 34931 34935 28
27949 34936 34937 28
27950 34936 34938 28
27951 34936 34939 28
27952 34936 34940 28
27953 34941 34942 28
27954 34941 34943 28
27955 34941 34944 28
27956 34941 34945 28
27957 34946 34947 28
27958 34946 34948 28
27959 34946 34949 28
27960 34946 34950 28
27961 34951 34952 28
27962 34951 34953 28
27963 34951 34954 28
27964 34951 34955 28
27965 34956 34957 28
27966 34956 34958 28
27967 34956 34959 28
27968 34956 34960 28
27969 34961 34962 28
27970 34961 34963 28
27971 34961 34964 28
27972 34961 34965 28
27973 34966 34967 28
27974 34966 34968 28
27975 34966 34969 28
27976 34966 34970 28
27977 34971 34972 28
27978 34971 34973 28
27979 34971 34974 28
27980 34971 34975 28
27981 34976 34977 28
27982 34976 34978 28
27983 34976 34979 28
27984 34976 34980 28
27985 34981 34982 28
27986 34981 34983 28
27987 34981 34984 28
27988 34981 34985 28
27989 34986 34987 28
27990 34986 34988 28
27991 34986 34989 28
27992 34986 34990 28
27993 34991 34992 28
27994 34991 34993 28
27995 34991 34994 28
27996 34991 34995 28
27997 34996 34997 28
27998 34996 34998 28
27999 34996 34999 28
28000 34996 35000 28
28001 35001 35002 28
28002 35001 35003 28
28003 35001 35004 28
28004 35001 35005 28
28005 35006 35007 28
28006 35006 35008 28
28007 35006 35009 28
28008 35006 35010 28
28009 35011 35012 28
28010 35011 35013 28
28011 35011 35014 28
28012 35011 35015 28
28013 35016 35017 28
28014 35016 35018 28
28015 35016 35019 28
28016 35016 35020 28
28017 35021 35022 28
28018 35021 35023 28
28019 35021 35024 28
28020 35021 35025 28
28021 35026 35027 28
28022 35026 35028 28
28023 35026 35029 28
28024 35026 35030 28
28025 35031 35032 28
28026 35031 35033 28
28027 35031 35034 28
28028 35031 35035 28
28029 35036 35037 28
28030 35036 35038 28
28031 35036 35039 28
28032 35036 35040 28
28033 35041 35042 28
28034 35041 35043 28
28035 35041 35044 28
28036 35041 35045 28
28037 35046 35047 28
28038 35046 35048 28
28039 35046 35049 28
28040 35046 35050 28
28041 35051 35052 28
28042 35051 35053 28
28043 35051 35054 28
28044 35051 35055 28
28045 35056 35057 28
28046 35056 35058 28
28047 35056 35059 28
28048 35056 35060 28
28049 35061 35062 28
28050 35061 35063 28
28051 35061 35064 28
28052 35061 35065 28
28053 35066 35067 28
28054 35066 35068 28
28055 35066 35069 28
28056 35066 35070 28
28057 35071 35072 28
28058 35071 35073 28
28059 35071 35074 28
28060 35071 35075 28
28061 35076 35077 28
28062 35076 35078 28
28063 35076 35079 28
28064 35076 35080 28
28065 35081 35082 28
28066 35081 35083 28
28067 35081 35084 28
28068 35081 35085 28
28069 35086 35087 28
28070 35086 35088 28
28071 35086 35089 28
28072 35086 35090 28
28073 35091 35092 28
28074 35091 35093 28
28075 35091 35094 28
28076 35091 35095 28
28077 35096 35097 28
28078 35096 35098 28
28079 35096 35099 28
28080 35096 35100 28
28081 35101 35102 28
28082 35101 35103 28
28083 35101 35104 28
28084 35101 35105 28
28085 35106 35107 28
28086 35106 35108 28
28087 35106 35109 28
28088 35106 35110 28
28089 35111 35112 28
28090 35111 35113 28
28091 35111 35114 28
28092 35111 35115 28
28093 35116 35117 28
28094 35116 35118 28
28095 35116 35119 28
28096 35116 35120 28
28097 35121 35122 28
28098 35121 35123 28
28099 35121 35124 28
28100 35121 35125 28
28101 35126 35127 28
28102 35126 35128 28
28103 35126 35129 28
28104 35126 35130 28
28105 35131 35132 28
28106 35131 35133 28
28107 35131 35134 28
28108 35131 35135 28
28109 35136 35137 28
28110 35136 35138 28
28111 35136 35139 28
28112 35136 35140 28
28113 35141 35142 28
28114 35141 35143 28
28115 35141 35144 28
28116 35141 35145 28
28117 35146 35147 28
28118 35146 35148 28
28119 35146 35149 28
28120 35146 35150 28
28121 35151 35152 28
28122 35151 35153 28
28123 35151 35154 28
28124 35151 35155 28
28125 35156 35157 28
28126 35156 35158 28
28127 35156 35159 28
28128 35156 35160 28
28129 35161 35162 28
28130 35161 35163 28
28131 35161 35164 28
28132 35161 35165 28
28133 35166 35167 28
28134 35166 35168 28
28135 35166 35169 28
28136 35166 35170 28
28137 35171 35172 28
28138 35171 35173 28
28139 35171 35174 28
28140 35171 35175 28
28141 35176 35177 28
28142 35176 35178 28
28143 35176 35179 28
28144 35176 35180 28
28145 35181 35182 28
28146 35181 35183 28
28147 35181 35184 28
28148 35181 35185 28
28149 35186 35187 28
28150 35186 35188 28
28151 35186 35189 28
28152 35186 35190 28
28153 35191 35192 28
28154 35191 35193 28
28155 35191 35194 28
28156 35191 35195 28
28157 35196 35197 28
28158 35196 35198 28
28159 35196 35199 28
28160 35196 35200 28
28161 35201 35202 28
28162 35201 35203 28
28163 35201 35204 28
28164 35201 35205 28
28165 35206 35207 28
28166 35206 35208 28
28167 35206 35209 28
28168 35206 35210 28
28169 35211 35212 28
28170 35211 35213 28
28171 35211 35214 28
28172 35211 35215 28
28173 35216 35217 28
28174 35216 35218 28
28175 35216 35219 28
28176 35216 35220 28
28177 35221 35222 28
28178 35221 35223 28
28179 35221 35224 28
28180 35221 35225 28
28181 35226 35227 28
28182 35226 35228 28
28183 35226 35229 28
28184 35226 35230 28
28185 35231 35232 28
28186 35231 35233 28
28187 35231 35234 28
28188 35231 35235 28
28189 35236 35237 28
28190 35236 35238 28
28191 35236 35239 28
28192 35236 35240 28
28193 35241 35242 28
28194 35241 35243 28
28195 35241 35244 28
28196 35241 35245 28
28197 35246 35247 28
28198 35246 35248 28
28199 35246 35249 28
28200 35246 35250 28
28201 35251 35252 28
28202 35251 35253 28
28203 35251 35254 28
28204 35251 35255 28
28205 35256 35257 28
28206 35256 35258 28
28207 35256 35259 28
28208 35256 35260 28
28209 35261 35262 28
28210 35261 35263 28
28211 35261 35264 28
28212 35261 35265 28
28213 35266 35267 28
28214 35266 35268 28
28215 35266 35269 28
28216 35266 35270 28
28217 35271 35272 28
28218 35271 35273 28
28219 35271 35274 28
28220 35271 35275 28
28221 35276 35277 28
28222 35276 35278 28
28223 35276 35279 28
28224 35276 35280 28
28225 35281 35282 28
28226 35281 35283 28
28227 35281 35284 28
28228 35281 35285 28
28229 35286 35287 28
28230 35286 35288 28
28231 35286 35289 28
28232 35286 35290 28
28233 35291 35292 28
28234 35291 35293 28
28235 35291 35294 28
28236 35291 35295 28
28237 35296 35297 28
28238 35296 35298 28
28239 35296 35299 28
28240 35296 35300 28
28241 35301 35302 28
28242 35301 35303 28
28243 35301 35304 28
28244 35301 35305 28
28245 35306 35307 28
28246 35306 35308 28
28247 35306 35309 28
28248 35306 35310 28
28249 35311 35312 28
28250 35311 35313 28
28251 35311 35314 28
28252 35311 35315 28
28253 35316 35317 28
28254 35316 35318 28
28255 35316 35319 28
28256 35316 35320 28
28257 35321 35322 28
28258 35321 35323 28
28259 35321 35324 28
28260 35321 35325 28
28261 35326 35327 28
28262 35326 35328 28
28263 35326 35329 28
28264 35326 35330 28
28265 35331 35332 28
28266 35331 35333 28
28267 35331 35334 28
28268 35331 35335 28
28269 35336 35337 28
28270 35336 35338 28
28271 35336 35339 28
28272 35336 35340 28
28273 35341 35342 28
28274 35341 35343 28
28275 35341 35344 28
28276 35341 35345 28
28277 35346 35347 28
28278 35346 35348 28
28279 35346 35349 28
28280 35346 35350 28
28281 35351 35352 28
28282 35351 35353 28
28283 35351 35354 28
28284 35351 35355 28
28285 35356 35357 28
28286 35356 35358 28
28287 35356 35359 28
28288 35356 35360 28
28289 35361 35362 28
28290 35361 35363 28
28291 35361 35364 28
28292 35361 35365 28
28293 35366 35367 28
28294 35366 35368 28
28295 35366 35369 28
28296 35366 35370 28
28297 35371 35372 28
28298 35371 35373 28
28299 35371 35374 28
28300 35371 35375 28
28301 35376 35377 28
28302 35376 35378 28
28303 35376 35379 28
28304 35376 35380 28
28305 35381 35382 28
28306 35381 35383 28
28307 35381 35384 28
28308 35381 35385 28
28309 35386 35387 28
28310 35386 35388 28
28311 35386 35389 28
28312 35386 35390 28
28313 35391 35392 28
28314 35391 35393 28
28315 35391 35394 28
28316 35391 35395 28
28317 35396 35397 28
28318 35396 35398 28
28319 35396 35399 28
28320 35396 35400 28
28321 35401 35402 28
28322 35401 35403 28
28323 35401 35404 28
28324 35401 35405 28
28325 35406 35407 28
28326 35406 35408 28
28327 35406 35409 28
28328 35406 35410 28
28329 35411 35412 28
28330 35411 35413 28
28331 35411 35414 28
28332 35411 35415 28
28333 35416 35417 28
28334 35416 35418 28
28335 35416 35419 28
28336 35416 35420 28
28337 35421 35422 28
28338 35421 35423 28
28339 35421 35424 28
28340 35421 35425 28
28341 35426 35427 28
28342 35426 35428 28
28343 35426 35429 28
28344 35426 35430 28
28345 35431 35432 28
28346 35431 35433 28
28347 35431 35434 28
28348 35431 35435 28
28349 35436 35437 28
28350 35436 35438 28
28351 35436 35439 28
28352 35436 35440 28
28353 35441 35442 28
28354 35441 35443 28
28355 35441 35444 28
28356 35441 35445 28
28357 35446 35447 28
28358 35446 35448 28
28359 35446 35449 28
28360 35446 35450 28
28361 35451 35452 28
28362 35451 35453 28
28363 35451 35454 28
28364 35451 35455 28
28365 35456 35457 28
28366 35456 35458 28
28367 35456 35459 28
28368 35456 35460 28
28369 35461 35462 28
28370 35461 35463 28
28371 35461 35464 28
28372 35461 35465 28
28373 35466 35467 28
28374 35466 35468 28
28375 35466 35469 28
28376 35466 35470 28
28377 35471 35472 28
28378 35471 35473 28
28379 35471 35474 28
28380 35471 35475 28
28381 35476 35477 28
28382 35476 35478 28
28383 35476 35479 28
28384 35476 35480 28
28385 35481 35482 28
28386 35481 35483 28
28387 35481 35484 28
28388 35481 35485 28
28389 35486 35487 28
28390 35486 35488 28
28391 35486 35489 28
28392 35486 35490 28
28393 35491 35492 28
28394 35491 35493 28
28395 35491 35494 28
28396 35491 35495 28
28397 35496 35497 28
28398 35496 35498 28
28399 35496 35499 28
28400 35496 35500 28
28401 35501 35502 28
28402 35501 35503 28
28403 35501 35504 28
28404 35501 35505 28
28405 35506 35507 28
28406 35506 35508 28
28407 35506 35509 28
28408 35506 35510 28
28409 35511 35512 28
28410 35511 35513 28
28411 35511 35514 28
28412 35511 35515 28
28413 35516 35517 28
28414 35516 35518 28
28415 35516 35519 28
28416 35516 35520 28
28417 35521 35522 28
28418 35521 35523 28
28419 35521 35524 28
28420 35521 35525 28
28421 35526 35527 28
28422 35526 35528 28
28423 35526 35529 28
28424 35526 35530 28
28425 35531 35532 28
28426 35531 35533 28
28427 35531 35534 28
28428 35531 35535 28
28429 35536 35537 28
28430 35536 35538 28
28431 35536 35539 28
28432 35536 35540 28
28433 35541 35542 28
28434 35541 35543 28
28435 35541 35544 28
28436 35541 35545 28
28437 35546 35547 28
28438 35546 35548 28
28439 35546 35549 28
28440 35546 35550 28
28441 35551 35552 28
28442 35551 35553 28
28443 35551 35554 28
28444 35551 35555 28
28445 35556 35557 28
28446 35556 35558 28
28447 35556 35559 28
28448 35556 35560 28
28449 35561 35562 28
28450 35561 35563 28
28451 35561 35564 28
28452 35561 35565 28
28453 35566 35567 28
28454 35566 35568 28
28455 35566 35569 28
28456 35566 35570 28
28457 35571 35572 28
28458 35571 35573 28
28459 35571 35574 28
28460 35571 35575 28
28461 35576 35577 28
28462 35576 35578 28
28463 35576 35579 28
28464 35576 35580 28
28465 35581 35582 28
28466 35581 35583 28
28467 35581 35584 28
28468 35581 35585 28
28469 35586 35587 28
28470 35586 35588 28
28471 35586 35589 28
28472 35586 35590 28
28473 35591 35592 28
28474 35591 35593 28
28475 35591 35594 28
28476 35591 35595 28
28477 35596 35597 28
28478 35596 35598 28
28479 35596 35599 28
28480 35596 35600 28
28481 35601 35602 28
28482 35601 35603 28
28483 35601 35604 28
28484 35601 35605 28
28485 35606 35607 28
28486 35606 35608 28
28487 35606 35609 28
28488 35606 35610 28
28489 35611 35612 28
28490 35611 35613 28
28491 35611 35614 28
28492 35611 35615 28
28493 35616 35617 28
28494 35616 35618 28
28495 35616 35619 28
28496 35616 35620 28
28497 35621 35622 28
28498 35621 35623 28
28499 35621 35624 28
28500 35621 35625 28
28501 35626 35627 28
28502 35626 35628 28
28503 35626 35629 28
28504 35626 35630 28
28505 35631 35632 28
28506 35631 35633 28
28507 35631 35634 28
28508 35631 35635 28
28509 35636 35637 28
28510 35636 35638 28
28511 35636 35639 28
28512 35636 35640 28
28513 35641 35642 28
28514 35641 35643 28
28515 35641 35644 28
28516 35641 35645 28
28517 35646 35647 28
28518 35646 35648 28
28519 35646 35649 28
28520 35646 35650 28
28521 35651 35652 28
28522 35651 35653 28
28523 35651 35654 28
28524 35651 35655 28
28525 35656 35657 28
28526 35656 35658 28
28527 35656 35659 28
28528 35656 35660 28
28529 35661 35662 28
28530 35661 35663 28
28531 35661 35664 28
28532 35661 35665 28
28533 35666 35667 28
28534 35666 35668 28
28535 35666 35669 28
28536 35666 35670 28
28537 35671 35672 28
28538 35671 35673 28
28539 35671 35674 28
28540 35671 35675 28
28541 35676 35677 28
28542 35676 35678 28
28543 35676 35679 28
28544 35676 35680 28
28545 35681 35682 28
28546 35681 35683 28
28547 35681 35684 28
28548 35681 35685 28
28549 35686 35687 28
28550 35686 35688 28
28551 35686 35689 28
28552 35686 35690 28
28553 35691 35692 28
28554 35691 35693 28
28555 35691 35694 28
28556 35691 35695 28
28557 35696 35697 28
28558 35696 35698 28
28559 35696 35699 28
28560 35696 35700 28
28561 35701 35702 28
28562 35701 35703 28
28563 35701 35704 28
28564 35701 35705 28
28565 35706 35707 28
28566 35706 35708 28
28567 35706 35709 28
28568 35706 35710 28
28569 35711 35712 28
28570 35711 35713 28
28571 35711 35714 28
28572 35711 35715 28
28573 35716 35717 28
28574 35716 35718 28
28575 35716 35719 28
28576 35716 35720 28
28577 35721 35722 28
28578 35721 35723 28
28579 35721 35724 28
28580 35721 35725 28
28581 35726 35727 28
28582 35726 35728 28
28583 35726 35729 28
28584 35726 35730 28
28585 35731 35732 28
28586 35731 35733 28
28587 35731 35734 28
28588 35731 35735 28
28589 35736 35737 28
28590 35736 35738 28
28591 35736 35739 28
28592 35736 35740 28
28593 35741 35742 28
28594 35741 35743 28
28595 35741 35744 28
28596 35741 35745 28
28597 35746 35747 28
28598 35746 35748 28
28599 35746 35749 28
28600 35746 35750 28
28601 35751 35752 28
28602 35751 35753 28
28603 35751 35754 28
28604 35751 35755 28
28605 35756 35757 28
28606 35756 35758 28
28607 35756 35759 28
28608 35756 35760 28
28609 35761 35762 28
28610 35761 35763 28
28611 35761 35764 28
28612 35761 35765 28
28613 35766 35767 28
28614 35766 35768 28
28615 35766 35769 28
28616 35766 35770 28
28617 35771 35772 28
28618 35771 35773 28
28619 35771 35774 28
28620 35771 35775 28
28621 35776 35777 28
28622 35776 35778 28
28623 35776 35779 28
28624 35776 35780 28
28625 35781 35782 28
28626 35781 35783 28
28627 35781 35784 28
28628 35781 35785 28
28629 35786 35787 28
28630 35786 35788 28
28631 35786 35789 28
28632 35786 35790 28
28633 35791 35792 28
28634 35791 35793 28
28635 35791 35794 28
28636 35791 35795 28
28637 35796 35797 28
28638 35796 35798 28
28639 35796 35799 28
28640 35796 35800 28
28641 35801 35802 28
28642 35801 35803 28
28643 35801 35804 28
28644 35801 35805 28
28645 35806 35807 28
28646 35806 35808 28
28647 35806 35809 28
28648 35806 35810 28
28649 35811 35812 28
28650 35811 35813 28
28651 35811 35814 28
28652 35811 35815 28
28653 35816 35817 28
28654 35816 35818 28
28655 35816 35819 28
28656 35816 35820 28
28657 35821 35822 28
28658 35821 35823 28
28659 35821 35824 28
28660 35821 35825 28
28661 35826 35827 28
28662 35826 35828 28
28663 35826 35829 28
28664 35826 35830 28
28665 35831 35832 28
28666 35831 35833 28
28667 35831 35834 28
28668 35831 35835 28
28669 35836 35837 28
28670 35836 35838 28
28671 35836 35839 28
28672 35836 35840 28
28673 35841 35842 28
28674 35841 35843 28
28675 35841 35844 28
28676 35841 35845 28
28677 35846 35847 28
28678 35846 35848 28
28679 35846 35849 28
28680 35846 35850 28
28681 35851 35852 28
28682 35851 35853 28
28683 35851 35854 28
28684 35851 35855 28
28685 35856 35857 28
28686 35856 35858 28
28687 35856 35859 28
28688 35856 35860 28
28689 35861 35862 28
28690 35861 35863 28
28691 35861 35864 28
28692 35861 35865 28
28693 35866 35867 28
28694 35866 35868 28
28695 35866 35869 28
28696 35866 35870 28
28697 35871 35872 28
28698 35871 35873 28
28699 35871 35874 28
28700 35871 35875 28
28701 35876 35877 28
28702 35876 35878 28
28703 35876 35879 28
28704 35876 35880 28
28705 35881 35882 28
28706 35881 35883 28
28707 35881 35884 28
28708 35881 35885 28
28709 35886 35887 28
28710 35886 35888 28
28711 35886 35889 28
28712 35886 35890 28
28713 35891 35892 28
28714 35891 35893 28
28715 35891 35894 28
28716 35891 35895 28
28717 35896 35897 28
28718 35896 35898 28
28719 35896 35899 28
28720 35896 35900 28
28721 35901 35902 28
28722 35901 35903 28
28723 35901 35904 28
28724 35901 35905 28
28725 35906 35907 28
28726 35906 35908 28
28727 35906 35909 28
28728 35906 35910 28
28729 35911 35912 28
28730 35911 35913 28
28731 35911 35914 28
28732 35911 35915 28
28733 35916 35917 28
28734 35916 35918 28
28735 35916 35919 28
28736 35916 35920 28
28737 35921 35922 28
28738 35921 35923 28
28739 35921 35924 28
28740 35921 35925 28
28741 35926 35927 28
28742 35926 35928 28
28743 35926 35929 28
28744 35926 35930 28
28745 35931 35932 28
28746 35931 35933 28
28747 35931 35934 28
28748 35931 35935 28
28749 35936 35937 28
28750 35936 35938 28
28751 35936 35939 28
28752 35936 35940 28
28753 35941 35942 28
28754 35941 35943 28
28755 35941 35944 28
28756 35941 35945 28
28757 35946 35947 28
28758 35946 35948 28
28759 35946 35949 28
28760 35946 35950 28
28761 35951 35952 28
28762 35951 35953 28
28763 35951 35954 28
28764 35951 35955 28
28765 35956 35957 28
28766 35956 35958 28
28767 35956 35959 28
28768 35956 35960 28
28769 35961 35962 28
28770 35961 35963 28
28771 35961 35964 28
28772 35961 35965 28
28773 35966 35967 28
28774 35966 35968 28
28775 35966 35969 28
28776 35966 35970 28
28777 35971 35972 28
28778 35971 35973 28
28779 35971 35974 28
28780 35971 35975 28
28781 35976 35977 28
28782 35976 35978 28
28783 35976 35979 28
28784 35976 35980 28
28785 35981 35982 28
28786 35981 35983 28
28787 35981 35984 28
28788 35981 35985 28
28789 35986 35987 28
28790 35986 35988 28
28791 35986 35989 28
28792 35986 35990 28
28793 35991 35992 28
28794 35991 35993 28
28795 35991 35994 28
28796 35991 35995 28
28797 35996 35997 28
28798 35996 35998 28
28799 35996 35999 28
28800 35996 36000 28
28801 36001 36002 28
28802 36001 36003 28
28803 36001 36004 28
28804 36001 36005 28
28805 36006 36007 28
28806 36006 36008 28
28807 36006 36009 28
28808 36006 36010 28
28809 36011 36012 28
28810 36011 36013 28
28811 36011 36014 28
28812 36011 36015 28
28813 36016 36017 28
28814 36016 36018 28
28815 36016 36019 28
28816 36016 36020 28
28817 36021 36022 28
28818 36021 36023 28
28819 36021 36024 28
28820 36021 36025 28
28821 36026 36027 28
28822 36026 36028 28
28823 36026 36029 28
28824 36026 36030 28
28825 36031 36032 28
28826 36031 36033 28
28827 36031 36034 28
28828 36031 36035 28
28829 36036 36037 28
28830 36036 36038 28
28831 36036 36039 28
28832 36036 36040 28
28833 36041 36042 28
28834 36041 36043 28
28835 36041 36044 28
28836 36041 36045 28
28837 36046 36047 28
28838 36046 36048 28
28839 36046 36049 28
28840 36046 36050 28
28841 36051 36052 28
28842 36051 36053 28
28843 36051 36054 28
28844 36051 36055 28
28845 36056 36057 28
28846 36056 36058 28
28847 36056 36059 28
28848 36056 36060 28
28849 36061 36062 28
28850 36061 36063 28
28851 36061 36064 28
28852 36061 36065 28
28853 36066 36067 28
28854 36066 36068 28
28855 36066 36069 28
28856 36066 36070 28
28857 36071 36072 28
28858 36071 36073 28
28859 36071 36074 28
28860 36071 36075 28
28861 36076 36077 28
28862 36076 36078 28
28863 36076 36079 28
28864 36076 36080 28
28865 36081 36082 28
28866 36081 36083 28
28867 36081 36084 28
28868 36081 36085 28
28869 36086 36087 28
28870 36086 36088 28
28871 36086 36089 28
28872 36086 36090 28
28873 36091 36092 28
28874 36091 36093 28
28875 36091 36094 28
28876 36091 36095 28
28877 36096 36097 28
28878 36096 36098 28
28879 36096 36099 28
28880 36096 36100 28
28881 36101 36102 28
28882 36101 36103 28
28883 36101 36104 28
28884 36101 36105 28
28885 36106 36107 28
28886 36106 36108 28
28887 36106 36109 28
28888 36106 36110 28
28889 36111 36112 28
28890 36111 36113 28
28891 36111 36114 28
28892 36111 36115 28
28893 36116 36117 28
28894 36116 36118 28
28895 36116 36119 28
28896 36116 36120 28
28897 36121 36122 28
28898 36121 36123 28
28899 36121 36124 28
28900 36121 36125 28
28901 36126 36127 28
28902 36126 36128 28
28903 36126 36129 28
28904 36126 36130 28
28905 36131 36132 28
28906 36131 36133 28
28907 36131 36134 28
28908 36131 36135 28
28909 36136 36137 28
28910 36136 36138 28
28911 36136 36139 28
28912 36136 36140 28
28913 36141 36142 28
28914 36141 36143 28
28915 36141 36144 28
28916 36141 36145 28
28917 36146 36147 28
28918 36146 36148 28
28919 36146 36149 28
28920 36146 36150 28
28921 36151 36152 28
28922 36151 36153 28
28923 36151 36154 28
28924 36151 36155 28
28925 36156 36157 28
28926 36156 36158 28
28927 36156 36159 28
28928 36156 36160 28
28929 36161 36162 28
28930 36161 36163 28
28931 36161 36164 28
28932 36161 36165 28
28933 36166 36167 28
28934 36166 36168 28
28935 36166 36169 28
28936 36166 36170 28
28937 36171 36172 28
28938 36171 36173 28
28939 36171 36174 28
28940 36171 36175 28
28941 36176 36177 28
28942 36176 36178 28
28943 36176 36179 28
28944 36176 36180 28
28945 36181 36182 28
28946 36181 36183 28
28947 36181 36184 28
28948 36181 36185 28
28949 36186 36187 28
28950 36186 36188 28
28951 36186 36189 28
28952 36186 36190 28
28953 36191 36192 28
28954 36191 36193 28
28955 36191 36194 28
28956 36191 36195 28
28957 36196 36197 28
28958 36196 36198 28
28959 36196 36199 28
28960 36196 36200 28
28961 36201 36202 28
28962 36201 36203 28
28963 36201 36204 28
28964 36201 36205 28
28965 36206 36207 28
28966 36206 36208 28
28967 36206 36209 28
28968 36206 36210 28
28969 36211 36212 28
28970 36211 36213 28
28971 36211 36214 28
28972 36211 36215 28
28973 36216 36217 28
28974 36216 36218 28
28975 36216 36219 28
28976 36216 36220 28
28977 36221 36222 28
28978 36221 36223 28
28979 36221 36224 28
28980 36221 36225 28
28981 36226 36227 28
28982 36226 36228 28
28983 36226 36229 28
28984 36226 36230 28
28985 36231 36232 28
28986 36231 36233 28
28987 36231 36234 28
28988 36231 36235 28
28989 36236 36237 28
28990 36236 36238 28
28991 36236 36239 28
28992 36236 36240 28
28993 36241 36242 28
28994 36241 36243 28
28995 36241 36244 28
28996 36241 36245 28
28997 36246 36247 28
28998 36246 36248 28
28999 36246 36249 28
29000 36246 36250 28
29001 36251 36252 28
29002 36251 36253 28
29003 36251 36254 28
29004 36251 36255 28
29005 36256 36257 28
29006 36256 36258 28
29007 36256 36259 28
29008 36256 36260 28
29009 36261 36262 28
29010 36261 36263 28
29011 36261 36264 28
29012 36261 36265 28
29013 36266 36267 28
29014 36266 36268 28
29015 36266 36269 28
29016 36266 36270 28
29017 36271 36272 28
29018 36271 36273 28
29019 36271 36274 28
29020 36271 36275 28
29021 36276 36277 28
29022 36276 36278 28
29023 36276 36279 28
29024 36276 36280 28
29025 36281 36282 28
29026 36281 36283 28
29027 36281 36284 28
29028 36281 36285 28
29029 36286 36287 28
29030 36286 36288 28
29031 36286 36289 28
29032 36286 36290 28
29033 36291 36292 28
29034 36291 36293 28
29035 36291 36294 28
29036 36291 36295 28
29037 36296 36297 28
29038 36296 36298 28
29039 36296 36299 28
29040 36296 36300 28
29041 36301 36302 28
29042 36301 36303 28
29043 36301 36304 28
29044 36301 36305 28
29045 36306 36307 28
29046 36306 36308 28
29047 36306 36309 28
29048 36306 36310 28
29049 36311 36312 28
29050 36311 36313 28
29051 36311 36314 28
29052 36311 36315 28
29053 36316 36317 28
29054 36316 36318 28
29055 36316 36319 28
29056 36316 36320 28
29057 36321 36322 28
29058 36321 36323 28
29059 36321 36324 28
29060 36321 36325 28
29061 36326 36327 28
29062 36326 36328 28
29063 36326 36329 28
29064 36326 36330 28
29065 36331 36332 28
29066 36331 36333 28
29067 36331 36334 28
29068 36331 36335 28
29069 36336 36337 28
29070 36336 36338 28
29071 36336 36339 28
29072 36336 36340 28
29073 36341 36342 28
29074 36341 36343 28
29075 36341 36344 28
29076 36341 36345 28
29077 36346 36347 28
29078 36346 36348 28
29079 36346 36349 28
29080 36346 36350 28
29081 36351 36352 28
29082 36351 36353 28
29083 36351 36354 28
29084 36351 36355 28
29085 36356 36357 28
29086 36356 36358 28
29087 36356 36359 28
29088 36356 36360 28
29089 36361 36362 28
29090 36361 36363 28
29091 36361 36364 28
29092 36361 36365 28
29093 36366 36367 28
29094 36366 36368 28
29095 36366 36369 28
29096 36366 36370 28
29097 36371 36372 28
29098 36371 36373 28
29099 36371 36374 28
29100 36371 36375 28
29101 36376 36377 28
29102 36376 36378 28
29103 36376 36379 28
29104 36376 36380 28
29105 36381 36382 28
29106 36381 36383 28
29107 36381 36384 28
29108 36381 36385 28
29109 36386 36387 28
29110 36386 36388 28
29111 36386 36389 28
29112 36386 36390 28
29113 36391 36392 28
29114 36391 36393 28
29115 36391 36394 28
29116 36391 36395 28
29117 36396 36397 28
29118 36396 36398 28
29119 36396 36399 28
29120 36396 36400 28
29121 36401 36402 28
29122 36401 36403 28
29123 36401 36404 28
29124 36401 36405 28
29125 36406 36407 28
29126 36406 36408 28
29127 36406 36409 28
29128 36406 36410 28
29129 36411 36412 28
29130 36411 36413 28
29131 36411 36414 28
29132 36411 36415 28
29133 36416 36417 28
29134 36416 36418 28
29135 36416 36419 28
29136 36416 36420 28
29137 36421 36422 28
29138 36421 36423 28
29139 36421 36424 28
29140 36421 36425 28
29141 36426 36427 28
29142 36426 36428 28
29143 36426 36429 28
29144 36426 36430 28
29145 36431 36432 28
29146 36431 36433 28
29147 36431 36434 28
29148 36431 36435 28
29149 36436 36437 28
29150 36436 36438 28
29151 36436 36439 28
29152 36436 36440 28
29153 36441 36442 28
29154 36441 36443 28
29155 36441 36444 28
29156 36441 36445 28
29157 36446 36447 28
29158 36446 36448 28
29159 36446 36449 28
29160 36446 36450 28
29161 36451 36452 28
29162 36451 36453 28
29163 36451 36454 28
29164 36451 36455 28
29165 36456 36457 28
29166 36456 36458 28
29167 36456 36459 28
29168 36456 36460 28
29169 36461 36462 28
29170 36461 36463 28
29171 36461 36464 28
29172 36461 36465 28
29173 36466 36467 28
29174 36466 36468 28
29175 36466 36469 28
29176 36466 36470 28
29177 36471 36472 28
29178 36471 36473 28
29179 36471 36474 28
29180 36471 36475 28
29181 36476 36477 28
29182 36476 36478 28
29183 36476 36479 28
29184 36476 36480 28
29185 36481 36482 28
29186 36481 36483 28
29187 36481 36484 28
29188 36481 36485 28
29189 36486 36487 28
29190 36486 36488 28
29191 36486 36489 28
29192 36486 36490 28
29193 36491 36492 28
29194 36491 36493 28
29195 36491 36494 28
29196 36491 36495 28
29197 36496 36497 28
29198 36496 36498 28
29199 36496 36499 28
29200 36496 36500 28
29201 36501 36502 28
29202 36501 36503 28
29203 36501 36504 28
29204 36501 36505 28
29205 36506 36507 28
29206 36506 36508 28
29207 36506 36509 28
29208 36506 36510 28
29209 36511 36512 28
29210 36511 36513 28
29211 36511 36514 28
29212 36511 36515 28
29213 36516 36517 28
29214 36516 36518 28
29215 36516 36519 28
29216 36516 36520 28
29217 36521 36522 28
29218 36521 36523 28
29219 36521 36524 28
29220 36521 36525 28
29221 36526 36527 28
29222 36526 36528 28
29223 36526 36529 28
29224 36526 36530 28
29225 36531 36532 28
29226 36531 36533 28
29227 36531 36534 28
29228 36531 36535 28
29229 36536 36537 28
29230 36536 36538 28
29231 36536 36539 28
29232 36536 36540 28
29233 36541 36542 28
29234 36541 36543 28
29235 36541 36544 28
29236 36541 36545 28
29237 36546 36547 28
29238 36546 36548 28
29239 36546 36549 28
29240 36546 36550 28
29241 36551 36552 28
29242 36551 36553 28
29243 36551 36554 28
29244 36551 36555 28
29245 36556 36557 28
29246 36556 36558 28
29247 36556 36559 28
29248 36556 36560 28
29249 36561 36562 28
29250 36561 36563 28
29251 36561 36564 28
29252 36561 36565 28
29253 36566 36567 28
29254 36566 36568 28
29255 36566 36569 28
29256 36566 36570 28
29257 36571 36572 28
29258 36571 36573 28
29259 36571 36574 28
29260 36571 36575 28
29261 36576 36577 28
29262 36576 36578 28
29263 36576 36579 28
29264 36576 36580 28
29265 36581 36582 28
29266 36581 36583 28
29267 36581 36584 28
29268 36581 36585 28
29269 36586 36587 28
29270 36586 36588 28
29271 36586 36589 28
29272 36586 36590 28
29273 36591 36592 28
29274 36591 36593 28
29275 36591 36594 28
29276 36591 36595 28
29277 36596 36597 28
29278 36596 36598 28
29279 36596 36599 28
29280 36596 36600 28
29281 36601 36602 28
29282 36601 36603 28
29283 36601 36604 28
29284 36601 36605 28
29285 36606 36607 28
29286 36606 36608 28
29287 36606 36609 28
29288 36606 36610 28
29289 36611 36612 28
29290 36611 36613 28
29291 36611 36614 28
29292 36611 36615 28
29293 36616 36617 28
29294 36616 36618 28
29295 36616 36619 28
29296 36616 36620 28
29297 36621 36622 28
29298 36621 36623 28
29299 36621 36624 28
29300 36621 36625 28
29301 36626 36627 28
29302 36626 36628 28
29303 36626 36629 28
29304 36626 36630 28
29305 36631 36632 28
29306 36631 36633 28
29307 36631 36634 28
29308 36631 36635 28
29309 36636 36637 28
29310 36636 36638 28
29311 36636 36639 28
29312 36636 36640 28
29313 36641 36642 28
29314 36641 36643 28
29315 36641 36644 28
29316 36641 36645 28
29317 36646 36647 28
29318 36646 36648 28
29319 36646 36649 28
29320 36646 36650 28
29321 36651 36652 28
29322 36651 36653 28
29323 36651 36654 28
29324 36651 36655 28
29325 36656 36657 28
29326 36656 36658 28
29327 36656 36659 28
29328 36656 36660 28
29329 36661 36662 28
29330 36661 36663 28
29331 36661 36664 28
29332 36661 36665 28
29333 36666 36667 28
29334 36666 36668 28
29335 36666 36669 28
29336 36666 36670 28
29337 36671 36672 28
29338 36671 36673 28
29339 36671 36674 28
29340 36671 36675 28
29341 36676 36677 28
29342 36676 36678 28
29343 36676 36679 28
29344 36676 36680 28
29345 36681 36682 28
29346 36681 36683 28
29347 36681 36684 28
29348 36681 36685 28
29349 36686 36687 28
29350 36686 36688 28
29351 36686 36689 28
29352 36686 36690 28
29353 36691 36692 28
29354 36691 36693 28
29355 36691 36694 28
29356 36691 36695 28
29357 36696 36697 28
29358 36696 36698 28
29359 36696 36699 28
29360 36696 36700 28
29361 36701 36702 28
29362 36701 36703 28
29363 36701 36704 28
29364 36701 36705 28
29365 36706 36707 28
29366 36706 36708 28
29367 36706 36709 28
29368 36706 36710 28
29369 36711 36712 28
29370 36711 36713 28
29371 36711 36714 28
29372 36711 36715 28
29373 36716 36717 28
29374 36716 36718 28
29375 36716 36719 28
29376 36716 36720 28
29377 36721 36722 28
29378 36721 36723 28
29379 36721 36724 28
29380 36721 36725 28
29381 36726 36727 28
29382 36726 36728 28
29383 36726 36729 28
29384 36726 36730 28
29385 36731 36732 28
29386 36731 36733 28
29387 36731 36734 28
29388 36731 36735 28
29389 36736 36737 28
29390 36736 36738 28
29391 36736 36739 28
29392 36736 36740 28
29393 36741 36742 28
29394 36741 36743 28
29395 36741 36744 28
29396 36741 36745 28
29397 36746 36747 28
29398 36746 36748 28
29399 36746 36749 28
29400 36746 36750 28
29401 36751 36752 28
29402 36751 36753 28
29403 36751 36754 28
29404 36751 36755 28
29405 36756 36757 28
29406 36756 36758 28
29407 36756 36759 28
29408 36756 36760 28
29409 36761 36762 28
29410 36761 36763 28
29411 36761 36764 28
29412 36761 36765 28
29413 36766 36767 28
29414 36766 36768 28
29415 36766 36769 28
29416 36766 36770 28
29417 36771 36772 28
29418 36771 36773 28
29419 36771 36774 28
29420 36771 36775 28
29421 36776 36777 28
29422 36776 36778 28
29423 36776 36779 28
29424 36776 36780 28
29425 36781 36782 28
29426 36781 36783 28
29427 36781 36784 28
29428 36781 36785 28
29429 36786 36787 28
29430 36786 36788 28
29431 36786 36789 28
29432 36786 36790 28
29433 36791 36792 28
29434 36791 36793 28
29435 36791 36794 28
29436 36791 36795 28
29437 36796 36797 28
29438 36796 36798 28
29439 36796 36799 28
29440 36796 36800 28
29441 36801 36802 28
29442 36801 36803 28
29443 36801 36804 28
29444 36801 36805 28
29445 36806 36807 28
29446 36806 36808 28
29447 36806 36809 28
29448 36806 36810 28
29449 36811 36812 28
29450 36811 36813 28
29451 36811 36814 28
29452 36811 36815 28
29453 36816 36817 28
29454 36816 36818 28
29455 36816 36819 28
29456 36816 36820 28
29457 36821 36822 28
29458 36821 36823 28
29459 36821 36824 28
29460 36821 36825 28
29461 36826 36827 28
29462 36826 36828 28
29463 36826 36829 28
29464 36826 36830 28
29465 36831 36832 28
29466 36831 36833 28
29467 36831 36834 28
29468 36831 36835 28
29469 36836 36837 28
29470 36836 36838 28
29471 36836 36839 28
29472 36836 36840 28
29473 36841 36842 28
29474 36841 36843 28
29475 36841 36844 28
29476 36841 36845 28
29477 36846 36847 28
29478 36846 36848 28
29479 36846 36849 28
29480 36846 36850 28
29481 36851 36852 28
29482 36851 36853 28
29483 36851 36854 28
29484 36851 36855 28
29485 36856 36857 28
29486 36856 36858 28
29487 36856 36859 28
29488 36856 36860 28
29489 36861 36862 28
29490 36861 36863 28
29491 36861 36864 28
29492 36861 36865 28
29493 36866 36867 28
29494 36866 36868 28
29495 36866 36869 28
29496 36866 36870 28
29497 36871 36872 28
29498 36871 36873 28
29499 36871 36874 28
29500 36871 36875 28
29501 36876 36877 28
29502 36876 36878 28
29503 36876 36879 28
29504 36876 36880 28
29505 36881 36882 28
29506 36881 36883 28
29507 36881 36884 28
29508 36881 36885 28
29509 36886 36887 28
29510 36886 36888 28
29511 36886 36889 28
29512 36886 36890 28
29513 36891 36892 28
29514 36891 36893 28
29515 36891 36894 28
29516 36891 36895 28
29517 36896 36897 28
29518 36896 36898 28
29519 36896 36899 28
29520 36896 36900 28
29521 36901 36902 28
29522 36901 36903 28
29523 36901 36904 28
29524 36901 36905 28
29525 36906 36907 28
29526 36906 36908 28
29527 36906 36909 28
29528 36906 36910 28
29529 36911 36912 28
29530 36911 36913 28
29531 36911 36914 28
29532 36911 36915 28
29533 36916 36917 28
29534 36916 36918 28
29535 36916 36919 28
29536 36916 36920 28
29537 36921 36922 28
29538 36921 36923 28
29539 36921 36924 28
29540 36921 36925 28
29541 36926 36927 28
29542 36926 36928 28
29543 36926 36929 28
29544 36926 36930 28
29545 36931 36932 28
29546 36931 36933 28
29547 36931 36934 28
29548 36931 36935 28
29549 36936 36937 28
29550 36936 36938 28
29551 36936 36939 28
29552 36936 36940 28
29553 36941 36942 28
29554 36941 36943 28
29555 36941 36944 28
29556 36941 36945 28
29557 36946 36947 28
29558 36946 36948 28
29559 36946 36949 28
29560 36946 36950 28
29561 36951 36952 28
29562 36951 36953 28
29563 36951 36954 28
29564 36951 36955 28
29565 36956 36957 28
29566 36956 36958 28
29567 36956 36959 28
29568 36956 36960 28
29569 36961 36962 28
29570 36961 36963 28
29571 36961 36964 28
29572 36961 36965 28
29573 36966 36967 28
29574 36966 36968 28
29575 36966 36969 28
29576 36966 36970 28
29577 36971 36972 28
29578 36971 36973 28
29579 36971 36974 28
29580 36971 36975 28
29581 36976 36977 28
29582 36976 36978 28
29583 36976 36979 28
29584 36976 36980 28
29585 36981 36982 28
29586 36981 36983 28
29587 36981 36984 28
29588 36981 36985 28
29589 36986 36987 28
29590 36986 36988 28
29591 36986 36989 28
29592 36986 36990 28
29593 36991 36992 28
29594 36991 36993 28
29595 36991 36994 28
29596 36991 36995 28
29597 36996 36997 28
29598 36996 36998 28
29599 36996 36999 28
29600 36996 37000 28
29601 37001 37002 28
29602 37001 37003 28
29603 37001 37004 28
29604 37001 37005 28
29605 37006 37007 28
29606 37006 37008 28
29607 37006 37009 28
29608 37006 37010 28
29609 37011 37012 28
29610 37011 37013 28
29611 37011 37014 28
29612 37011 37015 28
29613 37016 37017 28
29614 37016 37018 28
29615 37016 37019 28
29616 37016 37020 28
29617 37021 37022 28
29618 37021 37023 28
29619 37021 37024 28
29620 37021 37025 28
29621 37026 37027 28
29622 37026 37028 28
29623 37026 37029 28
29624 37026 37030 28
29625 37031 37032 28
29626 37031 37033 28
29627 37031 37034 28
29628 37031 37035 28
29629 37036 37037 28
29630 37036 37038 28
29631 37036 37039 28
29632 37036 37040 28
29633 37041 37042 28
29634 37041 37043 28
29635 37041 37044 28
29636 37041 37045 28
29637 37046 37047 28
29638 37046 37048 28
29639 37046 37049 28
29640 37046 37050 28
29641 37051 37052 28
29642 37051 37053 28
29643 37051 37054 28
29644 37051 37055 28
29645 37056 37057 28
29646 37056 37058 28
29647 37056 37059 28
29648 37056 37060 28
29649 37061 37062 28
29650 37061 37063 28
29651 37061 37064 28
29652 37061 37065 28
29653 37066 37067 28
29654 37066 37068 28
29655 37066 37069 28
29656 37066 37070 28
29657 37071 37072 28
29658 37071 37073 28
29659 37071 37074 28
29660 37071 37075 28
29661 37076 37077 28
29662 37076 37078 28
29663 37076 37079 28
29664 37076 37080 28
29665 37081 37082 28
29666 37081 37083 28
29667 37081 37084 28
29668 37081 37085 28
29669 37086 37087 28
29670 37086 37088 28
29671 37086 37089 28
29672 37086 37090 28
29673 37091 37092 28
29674 37091 37093 28
29675 37091 37094 28
29676 37091 37095 28
29677 37096 37097 28
29678 37096 37098 28
29679 37096 37099 28
29680 37096 37100 28
29681 37101 37102 28
29682 37101 37103 28
29683 37101 37104 28
29684 37101 37105 28
29685 37106 37107 28
29686 37106 37108 28
29687 37106 37109 28
29688 37106 37110 28
29689 37111 37112 28
29690 37111 37113 28
29691 37111 37114 28
29692 37111 37115 28
29693 37116 37117 28
29694 37116 37118 28
29695 37116 37119 28
29696 37116 37120 28
29697 37121 37122 28
29698 37121 37123 28
29699 37121 37124 28
29700 37121 37125 28
29701 37126 37127 28
29702 37126 37128 28
29703 37126 37129 28
29704 37126 37130 28
29705 37131 37132 28
29706 37131 37133 28
29707 37131 37134 28
29708 37131 37135 28
29709 37136 37137 28
29710 37136 37138 28
29711 37136 37139 28
29712 37136 37140 28
29713 37141 37142 28
29714 37141 37143 28
29715 37141 37144 28
29716 37141 37145 28
29717 37146 37147 28
29718 37146 37148 28
29719 37146 37149 28
29720 37146 37150 28
29721 37151 37152 28
29722 37151 37153 28
29723 37151 37154 28
29724 37151 37155 28
29725 37156 37157 28
29726 37156 37158 28
29727 37156 37159 28
29728 37156 37160 28
29729 37161 37162 28
29730 37161 37163 28
29731 37161 37164 28
29732 37161 37165 28
29733 37166 37167 28
29734 37166 37168 28
29735 37166 37169 28
29736 37166 37170 28
29737 37171 37172 28
29738 37171 37173 28
29739 37171 37174 28
29740 37171 37175 28
29741 37176 37177 28
29742 37176 37178 28
29743 37176 37179 28
29744 37176 37180 28
29745 37181 37182 28
29746 37181 37183 28
29747 37181 37184 28
29748 37181 37185 28
29749 37186 37187 28
29750 37186 37188 28
29751 37186 37189 28
29752 37186 37190 28
29753 37191 37192 28
29754 37191 37193 28
29755 37191 37194 28
29756 37191 37195 28
29757 37196 37197 28
29758 37196 37198 28
29759 37196 37199 28
29760 37196 37200 28
29761 37201 37202 28
29762 37201 37203 28
29763 37201 37204 28
29764 37201 37205 28
29765 37206 37207 28
29766 37206 37208 28
29767 37206 37209 28
29768 37206 37210 28
29769 37211 37212 28
29770 37211 37213 28
29771 37211 37214 28
29772 37211 37215 28
29773 37216 37217 28
29774 37216 37218 28
29775 37216 37219 28
29776 37216 37220 28
29777 37221 37222 28
29778 37221 37223 28
29779 37221 37224 28
29780 37221 37225 28
29781 37226 37227 28
29782 37226 37228 28
29783 37226 37229 28
29784 37226 37230 28
29785 37231 37232 28
29786 37231 37233 28
29787 37231 37234 28
29788 37231 37235 28
29789 37236 37237 28
29790 37236 37238 28
29791 37236 37239 28
29792 37236 37240 28
29793 37241 37242 28
29794 37241 37243 28
29795 37241 37244 28
29796 37241 37245 28
29797 37246 37247 28
29798 37246 37248 28
29799 37246 37249 28
29800 37246 37250 28
29801 37251 37252 28
29802 37251 37253 28
29803 37251 37254 28
29804 37251 37255 28
29805 37256 37257 28
29806 37256 37258 28
29807 37256 37259 28
29808 37256 37260 28
29809 37261 37262 28
29810 37261 37263 28
29811 37261 37264 28
29812 37261 37265 28
29813 37266 37267 28
29814 37266 37268 28
29815 37266 37269 28
29816 37266 37270 28
29817 37271 37272 28
29818 37271 37273 28
29819 37271 37274 28
29820 37271 37275 28
29821 37276 37277 28
29822 37276 37278 28
29823 37276 37279 28
29824 37276 37280 28
29825 37281 37282 28
29826 37281 37283 28
29827 37281 37284 28
29828 37281 37285 28
29829 37286 37287 28
29830 37286 37288 28
29831 37286 37289 28
29832 37286 37290 28
29833 37291 37292 28
29834 37291 37293 28
29835 37291 37294 28
29836 37291 37295 28
29837 37296 37297 28
29838 37296 37298 28
29839 37296 37299 28
29840 37296 37300 28
29841 37301 37302 28
29842 37301 37303 28
29843 37301 37304 28
29844 37301 37305 28
29845 37306 37307 28
29846 37306 37308 28
29847 37306 37309 28
29848 37306 37310 28
29849 37311 37312 28
29850 37311 37313 28
29851 37311 37314 28
29852 37311 37315 28
29853 37316 37317 28
29854 37316 37318 28
29855 37316 37319 28
29856 37316 37320 28
29857 37321 37322 28
29858 37321 37323 28
29859 37321 37324 28
29860 37321 37325 28
29861 37326 37327 28
29862 37326 37328 28
29863 37326 37329 28
29864 37326 37330 28
29865 37331 37332 28
29866 37331 37333 28
29867 37331 37334 28
29868 37331 37335 28
29869 37336 37337 28
29870 37336 37338 28
29871 37336 37339 28
29872 37336 37340 28
29873 37341 37342 28
29874 37341 37343 28
29875 37341 37344 28
29876 37341 37345 28
29877 37346 37347 28
29878 37346 37348 28
29879 37346 37349 28
29880 37346 37350 28
29881 37351 37352 28
29882 37351 37353 28
29883 37351 37354 28
29884 37351 37355 28
29885 37356 37357 28
29886 37356 37358 28
29887 37356 37359 28
29888 37356 37360 28
29889 37361 37362 28
29890 37361 37363 28
29891 37361 37364 28
29892 37361 37365 28
29893 37366 37367 28
29894 37366 37368 28
29895 37366 37369 28
29896 37366 37370 28
29897 37371 37372 28
29898 37371 37373 28
29899 37371 37374 28
29900 37371 37375 28
29901 37376 37377 28
29902 37376 37378 28
29903 37376 37379 28
29904 37376 37380 28
29905 37381 37382 28
29906 37381 37383 28
29907 37381 37384 28
29908 37381 37385 28
29909 37386 37387 28
29910 37386 37388 28
29911 37386 37389 28
29912 37386 37390 28
29913 37391 37392 28
29914 37391 37393 28
29915 37391 37394 28
29916 37391 37395 28
29917 37396 37397 28
29918 37396 37398 28
29919 37396 37399 28
29920 37396 37400 28
29921 37401 37402 28
29922 37401 37403 28
29923 37401 37404 28
29924 37401 37405 28
29925 37406 37407 28
29926 37406 37408 28
29927 37406 37409 28
29928 37406 37410 28
29929 37411 37412 28
29930 37411 37413 28
29931 37411 37414 28
29932 37411 37415 28
29933 37416 37417 28
29934 37416 37418 28
29935 37416 37419 28
29936 37416 37420 28
29937 37421 37422 28
29938 37421 37423 28
29939 37421 37424 28
29940 37421 37425 28
29941 37426 37427 28
29942 37426 37428 28
29943 37426 37429 28
29944 37426 37430 28
29945 37431 37432 28
29946 37431 37433 28
29947 37431 37434 28
29948 37431 37435 28
29949 37436 37437 28
29950 37436 37438 28
29951 37436 37439 28
29952 37436 37440 28
29953 37441 37442 28
29954 37441 37443 28
29955 37441 37444 28
29956 37441 37445 28
29957 37446 37447 28
29958 37446 37448 28
29959 37446 37449 28
29960 37446 37450 28
29961 37451 37452 28
29962 37451 37453 28
29963 37451 37454 28
29964 37451 37455 28
29965 37456 37457 28
29966 37456 37458 28
29967 37456 37459 28
29968 37456 37460 28
29969 37461 37462 28
29970 37461 37463 28
29971 37461 37464 28
29972 37461 37465 28
29973 37466 37467 28
29974 37466 37468 28
29975 37466 37469 28
29976 37466 37470 28
29977 37471 37472 28
29978 37471 37473 28
29979 37471 37474 28
29980 37471 37475 28
29981 37476 37477 28
29982 37476 37478 28
29983 37476 37479 28
29984 37476 37480 28
29985 37481 37482 28
29986 37481 37483 28
29987 37481 37484 28
29988 37481 37485 28
29989 37486 37487 28
29990 37486 37488 28
29991 37486 37489 28
29992 37486 37490 28
29993 37491 37492 28
29994 37491 37493 28
29995 37491 37494 28
29996 37491 37495 28
29997 37496 37497 28
29998 37496 37498 28
29999 37496 37499 28
30000 37496 37500 28
@<TRIPOS>CRYSIN
314.3990872522095 314.3990872522095 314.3990872522095 90 90 90 1 1
