@<TRIPOS>MOLECULE
mol
37500 30000
SMALL
USER_CHARGES


@<TRIPOS>ATOM
1 C 37.76409181864341 66.9111624150136 10.360700611255396 C 0.0 **** -0.24
2 H 37.25783867601848 66.42701548828637 11.195545529604885 H 0.0 **** 0.06
3 H 37.86576613325491 67.97664067471517 10.565793126819074 H 0.0 **** 0.06
4 H 37.1805192312851 66.76968443474011 9.451186701159045 H 0.0 **** 0.06
5 H 38.752551192317924 66.47008568703727 10.23091632788092 H 0.0 **** 0.06
6 C 88.65752037631589 8.25025242004348 34.99465658629004 C 0.0 **** -0.24
7 H 88.82556830653303 8.845872586839818 35.89165716398323 H 0.0 **** 0.06
8 H 87.88857293844093 8.722619371221512 34.38234055203581 H 0.0 **** 0.06
9 H 88.33084968504598 7.2496254776235105 35.27924327662888 H 0.0 **** 0.06
10 H 89.58490683253017 8.18191309067602 34.42529844285988 H 0.0 **** 0.06
11 C 62.40014085688654 52.4495834272559 50.11597318759365 C 0.0 **** -0.24
12 H 62.11653275437999 53.231157879803675 50.820593904896924 H 0.0 **** 0.06
13 H 63.460486651385 52.22246265193968 50.23334266425354 H 0.0 **** 0.06
14 H 62.21343407859135 52.79274744352992 49.09837425260827 H 0.0 **** 0.06
15 H 61.812054136573465 51.553069532386445 50.311626928265525 H 0.0 **** 0.06
16 C 92.98475737301933 63.52536769889673 88.02826111206146 C 0.0 **** -0.24
17 H 92.40446066238871 64.38698511047667 87.69836308265312 H 0.0 **** 0.06
18 H 94.02950972833253 63.66215797704888 87.74881433399318 H 0.0 **** 0.06
19 H 92.59583134029674 62.62322193563091 87.55505273167216 H 0.0 **** 0.06
20 H 92.90770089146113 63.42939213178903 89.11158035353766 H 0.0 **** 0.06
21 C 106.79395584550505 27.445643338671935 73.08416977182864 C 0.0 **** -0.24
22 H 106.65089637024913 26.65822972882556 73.82398078206602 H 0.0 **** 0.06
23 H 105.82984331108058 27.722087519140217 72.65604682929413 H 0.0 **** 0.06
24 H 107.45296728441915 27.086552511154167 72.29441715888188 H 0.0 **** 0.06
25 H 107.24139713367627 28.316498075218313 73.56315711085023 H 0.0 **** 0.06
26 C 112.99966777382218 2.5805581283529264 89.59462897725363 C 0.0 **** -0.24
27 H 113.6831294072669 2.967897006190599 90.35144497000746 H 0.0 **** 0.06
28 H 112.27955104495521 3.35397327219224 89.32651613563182 H 0.0 **** 0.06
29 H 112.47250810199426 1.713877603013275 89.99146648948722 H 0.0 **** 0.06
30 H 113.5665333966694 2.2886525471683274 88.71108667510036 H 0.0 **** 0.06
31 C 112.66826148595496 51.947754524686275 52.83842165588331 C 0.0 **** -0.24
32 H 113.68585303942983 51.596193287099254 52.66590869093662 H 0.0 **** 0.06
33 H 111.96452604728344 51.28246220840106 52.33849555910129 H 0.0 **** 0.06
34 H 112.5603750441322 52.956984425739165 52.44183743999787 H 0.0 **** 0.06
35 H 112.464047008786 51.95425840034932 53.909605002602746 H 0.0 **** 0.06
36 C 2.464821062499155 83.59904490788686 73.97205976456 C 0.0 **** -0.24
37 H 3.223972686964032 82.86383654536108 73.70461809999588 H 0.0 **** 0.06
38 H 2.905218457131525 84.35645143541146 74.62051257021854 H 0.0 **** 0.06
39 H 1.6470767714465495 83.10263148026172 74.49540342761055 H 0.0 **** 0.06
40 H 2.0827326184998896 84.07176108120116 73.0668849560989 H 0.0 **** 0.06
41 C 26.467973015370447 23.605188285316018 50.03359418871585 C 0.0 **** -0.24
42 H 26.953152674016394 24.331234824337344 50.68457619677343 H 0.0 **** 0.06
43 H 26.98957914835473 22.65018133459003 50.099513384393504 H 0.0 **** 0.06
44 H 26.494943033250593 23.964543144972566 49.00448714673776 H 0.0 **** 0.06
45 H 25.43133449043537 23.474976050250234 50.34498930999037 H 0.0 **** 0.06
46 C 80.15441854740517 53.57029790883743 23.612611762632408 C 0.0 **** -0.24
47 H 80.36940934372836 53.17295890760221 24.60485379988367 H 0.0 **** 0.06
48 H 79.2151764719045 53.15220652285015 23.250290801005473 H 0.0 **** 0.06
49 H 80.96054538857429 53.29905025191641 22.931203839538526 H 0.0 **** 0.06
50 H 80.07334531608016 54.65547318304746 23.665858805886838 H 0.0 **** 0.06
51 C 110.4586008703557 82.67607970885771 110.4852063407397 C 0.0 **** -0.24
52 H 109.88692257170122 83.19540630722179 109.71601171945144 H 0.0 **** 0.06
53 H 110.3351809251702 81.60016407283098 110.36417502345762 H 0.0 **** 0.06
54 H 110.0971140087901 82.97594799408998 111.46971429596269 H 0.0 **** 0.06
55 H 111.51313905579714 82.935400028689 110.3911545271925 H 0.0 **** 0.06
56 C 103.21911203363892 69.3236755388561 31.10733657600622 C 0.0 **** -0.24
57 H 104.26721676162387 69.61853395987535 31.04497780760964 H 0.0 **** 0.06
58 H 102.83497324942594 69.13652238584734 30.104592518486726 H 0.0 **** 0.06
59 H 102.64509735046626 70.12350960669897 31.574436267877978 H 0.0 **** 0.06
60 H 103.13336043283898 68.41664946011701 31.705656645723373 H 0.0 **** 0.06
61 C 114.00741780707307 56.64747887753825 99.65176760287096 C 0.0 **** -0.24
62 H 113.78606919856921 55.76801867733674 99.0469179401583 H 0.0 **** 0.06
63 H 114.68883057295005 56.372760132686835 100.45599873965453 H 0.0 **** 0.06
64 H 113.08243488934474 57.038097838872275 100.07537586020545 H 0.0 **** 0.06
65 H 114.47131748006183 57.41005038678121 99.02561795667317 H 0.0 **** 0.06
66 C 60.796624382931384 73.38008669784304 28.339781300746417 C 0.0 **** -0.24
67 H 60.80713598774912 74.4697515431765 28.30413551577108 H 0.0 **** 0.06
68 H 60.00488987056298 73.00374824401294 27.69070851668137 H 0.0 **** 0.06
69 H 60.6152727960644 73.05190455111668 29.363371378606395 H 0.0 **** 0.06
70 H 61.75836078646745 72.99705782803657 27.99922953977203 H 0.0 **** 0.06
71 C 23.632106196113966 43.277371305865444 75.45058705817446 C 0.0 **** -0.24
72 H 24.238439942863693 42.3716591525769 75.43454201765891 H 0.0 **** 0.06
73 H 23.02186645065609 43.32116614239474 74.54850168662924 H 0.0 **** 0.06
74 H 24.28335388504155 44.150277896944836 75.49233714435353 H 0.0 **** 0.06
75 H 22.984194843560147 43.26508826975801 76.32692520601297 H 0.0 **** 0.06
76 C 97.864076269875 74.28249809181534 55.08908536334371 C 0.0 **** -0.24
77 H 97.43283225057331 75.28070001790542 55.00506072013718 H 0.0 **** 0.06
78 H 97.4257286151867 73.63209458159238 54.33233497716603 H 0.0 **** 0.06
79 H 97.65549616043376 73.87939960841143 56.0806485568304 H 0.0 **** 0.06
80 H 98.94229227500506 74.33967746330518 54.93950820931721 H 0.0 **** 0.06
81 C 59.43595002159708 46.45539161124526 86.1307405261067 C 0.0 **** -0.24
82 H 59.78183497076472 45.459577238779445 85.85025167234517 H 0.0 **** 0.06
83 H 58.41809195248442 46.60151931000223 85.76997998399213 H 0.0 **** 0.06
84 H 60.09170161827214 47.20445371542456 85.68697329235732 H 0.0 **** 0.06
85 H 59.45525858058464 46.55314874547372 87.21625620361357 H 0.0 **** 0.06
86 C 46.716099650877545 58.89393475379947 70.13524407111535 C 0.0 **** -0.24
87 H 46.67983558875065 59.79821542622905 70.74219950552502 H 0.0 **** 0.06
88 H 47.251038543964 59.100659203183795 69.20788546652078 H 0.0 **** 0.06
89 H 45.70041543995131 58.57069473168757 69.90578805649665 H 0.0 **** 0.06
90 H 47.23164320089625 58.10692920606458 70.68562727305458 H 0.0 **** 0.06
91 C 84.95036752086122 65.4368415752453 65.18762587000333 C 0.0 **** -0.24
92 H 84.99248422353986 66.12350402703731 64.34202050839504 H 0.0 **** 0.06
93 H 84.43009299899444 65.91554298331073 66.01838518889524 H 0.0 **** 0.06
94 H 85.96290038381727 65.17631963807185 65.49475782416205 H 0.0 **** 0.06
95 H 84.41489049969704 64.53381821260541 64.8965560286064 H 0.0 **** 0.06
96 C 41.489616713816766 0.3268025102592276 71.02703902918024 C 0.0 **** -0.24
97 H 40.61316053156723 0.19054238233468368 71.6618393000304 H 0.0 **** 0.06
98 H 41.175871181006606 0.6936476977639359 70.0496681106203 H 0.0 **** 0.06
99 H 42.0050456737735 -0.6266343883315812 70.91021165107416 H 0.0 **** 0.06
100 H 42.16200170580111 1.0492603771365339 71.48870509351696 H 0.0 **** 0.06
101 C 44.13031837294392 90.75117067486872 84.59749614282043 C 0.0 **** -0.24
102 H 44.99153523701301 91.00600381066192 85.21422548117607 H 0.0 **** 0.06
103 H 43.39204852964329 90.2259544434533 85.2030752668453 H 0.0 **** 0.06
104 H 44.45009233788352 90.10985624959426 83.77552288616693 H 0.0 **** 0.06
105 H 43.689459918674515 91.6634556512326 84.19607182873199 H 0.0 **** 0.06
106 C 85.28966231801323 17.875713059171773 105.2394420721072 C 0.0 **** -0.24
107 H 85.51054040443653 18.860985522580208 104.82734539639412 H 0.0 **** 0.06
108 H 86.19219368189795 17.26471265425593 105.22294359945995 H 0.0 **** 0.06
109 H 84.5150745553719 17.39782261156674 104.64133174916924 H 0.0 **** 0.06
110 H 84.94092601038443 17.982129042906337 106.2672276759616 H 0.0 **** 0.06
111 C 60.32570859451836 57.01156253523985 93.05217284787153 C 0.0 **** -0.24
112 H 60.08844360203315 58.062584558650656 93.21796670291883 H 0.0 **** 0.06
113 H 59.51326242888085 56.53988646416309 92.49929630405876 H 0.0 **** 0.06
114 H 60.4507281683843 56.51136258419103 94.0124038910225 H 0.0 **** 0.06
115 H 61.24912524726108 56.93375699691225 92.47776831157091 H 0.0 **** 0.06
116 C 92.80206792573784 68.30026754173582 28.976365119580976 C 0.0 **** -0.24
117 H 93.64609324392713 68.08753963820266 28.3203455701414 H 0.0 **** 0.06
118 H 93.01374193936775 69.19616848126373 29.5618104982168 H 0.0 **** 0.06
119 H 92.64318060102987 67.45685228245759 29.648185827219834 H 0.0 **** 0.06
120 H 91.9066293823227 68.46151047601973 28.376882815197234 H 0.0 **** 0.06
121 C 61.13489008510669 81.84865081260591 101.50939450543791 C 0.0 **** -0.24
122 H 61.99299886383716 81.2747665042549 101.15924212448925 H 0.0 **** 0.06
123 H 61.38960509628231 82.90880135188297 101.5263269352356 H 0.0 **** 0.06
124 H 60.866430362637686 81.5235255192988 102.5149771846454 H 0.0 **** 0.06
125 H 60.29111042708007 81.68797285731512 100.83823353722809 H 0.0 **** 0.06
126 C 60.19750924792919 87.90578778438362 51.76922442106266 C 0.0 **** -0.24
127 H 59.93702307426341 87.55617678432924 52.76850150296178 H 0.0 **** 0.06
128 H 60.16138619442188 88.99528774400198 51.74508809297302 H 0.0 **** 0.06
129 H 59.48875871998578 87.50237006123169 51.0463382906953 H 0.0 **** 0.06
130 H 61.20437028160302 87.56993642880329 51.51850674093694 H 0.0 **** 0.06
131 C 43.617236170144686 104.06640149288617 19.17303455757653 C 0.0 **** -0.24
132 H 43.26539034884981 104.96640130244474 18.66847789047503 H 0.0 **** 0.06
133 H 44.399918729187036 104.33156183275483 19.884094740085544 H 0.0 **** 0.06
134 H 44.016214551821214 103.36924322432168 18.436007982887332 H 0.0 **** 0.06
135 H 42.78709118067084 103.59922829746911 19.70310537461782 H 0.0 **** 0.06
136 C 35.43640265210172 58.94379035347926 32.586806602166206 C 0.0 **** -0.24
137 H 36.42374263902741 58.99131342818974 33.04427656143446 H 0.0 **** 0.06
138 H 35.07103959879473 57.916402883560835 32.6162766095689 H 0.0 **** 0.06
139 H 35.49847417745546 59.27811872473754 31.551546161662372 H 0.0 **** 0.06
140 H 34.75056554015818 59.588435770815934 33.136130980735516 H 0.0 **** 0.06
141 C 33.22414204157528 79.76080924248197 66.16116288275758 C 0.0 **** -0.24
142 H 32.83917018177101 78.74126490331867 66.18181625187955 H 0.0 **** 0.06
143 H 33.99359841799924 79.84291498662502 65.39291023052519 H 0.0 **** 0.06
144 H 33.65115645055113 80.00788065335283 67.13220349179873 H 0.0 **** 0.06
145 H 32.41052807547389 80.45111896353752 65.93584438966612 H 0.0 **** 0.06
146 C 73.17389579054263 0.3519754192207927 98.46737621836128 C 0.0 **** -0.24
147 H 72.76355830354508 1.360044579886818 98.5230650347574 H 0.0 **** 0.06
148 H 72.58193080044995 -0.242357852852507 97.77011151631854 H 0.0 **** 0.06
149 H 73.14271673463864 -0.10833147417037026 99.45453524354517 H 0.0 **** 0.06
150 H 74.20565056868787 0.39911965187243936 98.12015293593605 H 0.0 **** 0.06
151 C 30.286221782210703 46.803896579683425 68.90856857564242 C 0.0 **** -0.24
152 H 30.94323184156542 47.299211628460654 69.62276902400211 H 0.0 **** 0.06
153 H 30.422355184771448 47.247651994635504 67.92140978058745 H 0.0 **** 0.06
154 H 29.249588148367593 46.9271545450146 69.22233719394131 H 0.0 **** 0.06
155 H 30.529625136138463 45.7423096237147 68.86619534182717 H 0.0 **** 0.06
156 C 62.147513848593235 110.29129835321885 36.71846451724167 C 0.0 **** -0.24
157 H 62.66812893066265 111.00726691340628 37.35367980128893 H 0.0 **** 0.06
158 H 62.830814902031534 109.92023805223074 35.95398068498048 H 0.0 **** 0.06
159 H 61.29748220120297 110.77906639968104 36.241577661188586 H 0.0 **** 0.06
160 H 61.79427974222938 109.45787167916524 37.325626929242276 H 0.0 **** 0.06
161 C 82.26203953136772 58.597835942746585 101.29132635804302 C 0.0 **** -0.24
162 H 81.69697715285855 57.971753178263825 101.98073287573342 H 0.0 **** 0.06
163 H 82.45806819238578 59.56499170390151 101.75521438702222 H 0.0 **** 0.06
164 H 81.68536460299757 58.74247966427269 100.37733904009866 H 0.0 **** 0.06
165 H 83.20784472534487 58.112313812690786 101.0503007043115 H 0.0 **** 0.06
166 C 24.449038353550407 95.00125479276296 90.39334950864715 C 0.0 **** -0.24
167 H 24.92592374988115 94.28342600282132 89.72503912312423 H 0.0 **** 0.06
168 H 24.104369554734546 95.8595195168636 89.81560415013543 H 0.0 **** 0.06
169 H 25.1666565731106 95.33184390117214 91.143008351956 H 0.0 **** 0.06
170 H 23.599535177447592 94.52946630583133 90.88609840128129 H 0.0 **** 0.06
171 C 14.594163235925961 76.2720042227953 90.98325693003801 C 0.0 **** -0.24
172 H 15.543481285266338 76.5136868926657 91.46121747242736 H 0.0 **** 0.06
173 H 13.955449669790582 75.74215746897575 91.6900758336044 H 0.0 **** 0.06
174 H 14.775286771869787 75.6408163121654 90.11336462075081 H 0.0 **** 0.06
175 H 14.101344089546117 77.19221733212181 90.66863063140613 H 0.0 **** 0.06
176 C 101.233230167132 28.201152717458925 9.937826760154323 C 0.0 **** -0.24
177 H 100.35796413720732 28.602766779099333 9.426041507279322 H 0.0 **** 0.06
178 H 101.02628391376547 27.182302790161813 10.265765239693735 H 0.0 **** 0.06
179 H 101.4624128971605 28.8212845437331 10.804423175453138 H 0.0 **** 0.06
180 H 102.08308413408946 28.199100017995896 9.256562143932129 H 0.0 **** 0.06
181 C 7.920679491596532 2.787592167207867 24.968267386517795 C 0.0 **** -0.24
182 H 6.9340027052770346 2.6466822895313236 24.525264037565876 H 0.0 **** 0.06
183 H 8.157341599422818 3.851458503135108 24.997181943967178 H 0.0 **** 0.06
184 H 8.66564721231055 2.2654401278221243 24.368216661166457 H 0.0 **** 0.06
185 H 7.923727745241923 2.3865954617621323 25.981422783476802 H 0.0 **** 0.06
186 C 90.97464607872075 58.80348133332248 94.34807045496058 C 0.0 **** -0.24
187 H 91.1257479559639 58.01440575783096 95.08559644616656 H 0.0 **** 0.06
188 H 90.57066791134923 59.68820595832477 94.84152015627983 H 0.0 **** 0.06
189 H 90.27429790584677 58.46048829764115 93.58738806883586 H 0.0 **** 0.06
190 H 91.92727207563422 59.050739384929756 93.88015092082449 H 0.0 **** 0.06
191 C 7.611253740647371 114.78685100678341 109.63614037330211 C 0.0 **** -0.24
192 H 6.796098364982242 115.0783076953709 108.97414019073909 H 0.0 **** 0.06
193 H 7.358743704581727 115.0569255067462 110.66232948591755 H 0.0 **** 0.06
194 H 8.524338237000904 115.30186660161351 109.3377409961671 H 0.0 **** 0.06
195 H 7.764032717822772 113.70903366317035 109.57141807695407 H 0.0 **** 0.06
196 C 68.64825572201977 104.38133525126551 107.9010953493856 C 0.0 **** -0.24
197 H 68.51697292008572 104.4175031019115 106.81932721141541 H 0.0 **** 0.06
198 H 68.55090190127476 105.38680022245285 108.31224989219608 H 0.0 **** 0.06
199 H 69.63908257903688 103.98813626489041 108.13302285130365 H 0.0 **** 0.06
200 H 67.88915575310239 103.73330447679729 108.33771054969465 H 0.0 **** 0.06
201 C 84.40113795491096 27.806279385490683 81.43063361571552 C 0.0 **** -0.24
202 H 84.43593723323445 28.336839625220733 82.38209953214275 H 0.0 **** 0.06
203 H 83.42472590403861 27.336221382190274 81.31289008071342 H 0.0 **** 0.06
204 H 85.17754986794856 27.041447385578067 81.41260287320107 H 0.0 **** 0.06
205 H 84.56659756461057 28.51174194583828 80.61574816123066 H 0.0 **** 0.06
206 C 79.0179724972536 98.56947899220614 91.93218312022583 C 0.0 **** -0.24
207 H 79.75163367681245 99.22187738701467 91.4577801166073 H 0.0 **** 0.06
208 H 78.36096531185655 98.14846633840165 91.1718756864625 H 0.0 **** 0.06
209 H 78.42767130184237 99.14571498851274 92.64505138469193 H 0.0 **** 0.06
210 H 79.53415386878928 97.76426475278811 92.45490998182268 H 0.0 **** 0.06
211 C 44.47956572145807 29.061154211137875 12.51188070114307 C 0.0 **** -0.24
212 H 43.72126624962061 29.391841569878466 13.221742903127108 H 0.0 **** 0.06
213 H 45.3133216112584 28.614963649087002 13.0532600584948 H 0.0 **** 0.06
214 H 44.83486754338355 29.9154643685479 11.935801439335364 H 0.0 **** 0.06
215 H 44.04795341419316 28.322555381172066 11.836241633100684 H 0.0 **** 0.06
216 C 31.266562649338994 42.00239931264883 65.90522638060918 C 0.0 **** -0.24
217 H 31.601887499990255 40.965433583997665 65.90225044398107 H 0.0 **** 0.06
218 H 31.813044678824156 42.563757497729796 65.14726533729765 H 0.0 **** 0.06
219 H 31.450162302906335 42.44081817330425 66.88666801585036 H 0.0 **** 0.06
220 H 30.198862773626217 42.039155761973205 65.68546610271524 H 0.0 **** 0.06
221 C 94.5815088447363 100.82976852127865 19.09670286466153 C 0.0 **** -0.24
222 H 95.60676985135929 100.61475506742363 19.397594252183072 H 0.0 **** 0.06
223 H 94.32524616187659 100.22684481496526 18.225099147304668 H 0.0 **** 0.06
224 H 94.49057482313312 101.88708232045695 18.846912723007314 H 0.0 **** 0.06
225 H 93.90461614161033 100.59074295249081 19.916495252264127 H 0.0 **** 0.06
226 C 17.43188559148686 86.36311402840363 75.48807582873633 C 0.0 **** -0.24
227 H 17.454499241870963 85.28403414295497 75.63719230738167 H 0.0 **** 0.06
228 H 18.00453284273783 86.61866460316736 74.59649319867151 H 0.0 **** 0.06
229 H 17.868490893962587 86.85800791866194 76.35556784625385 H 0.0 **** 0.06
230 H 16.399878663027863 86.6912371788573 75.3643606456119 H 0.0 **** 0.06
231 C 114.05602298799832 88.57654384493264 26.39941435004053 C 0.0 **** -0.24
232 H 114.38895119661655 88.96757464242944 25.437872728913504 H 0.0 **** 0.06
233 H 113.0772329667268 88.11111304789506 26.2820225251497 H 0.0 **** 0.06
234 H 113.98631649270322 89.39237525026022 27.118906307651457 H 0.0 **** 0.06
235 H 114.77123462749255 87.83566865108804 26.757605426669954 H 0.0 **** 0.06
236 C 23.073401282213297 1.5248804329137613 76.2152068766622 C 0.0 **** -0.24
237 H 21.998337461455264 1.626241040523979 76.35544319929039 H 0.0 **** 0.06
238 H 23.49578530670351 0.9528132172076766 77.04218479272936 H 0.0 **** 0.06
239 H 23.531472365929005 2.51371565830965 76.18558667917324 H 0.0 **** 0.06
240 H 23.27015208268881 1.0061118103869262 75.27661173915067 H 0.0 **** 0.06
241 C 56.78212674121386 36.92831830439556 84.2550429221194 C 0.0 **** -0.24
242 H 57.74502238562917 37.12081366130414 84.72902405455517 H 0.0 **** 0.06
243 H 56.8325478904662 37.21124966811618 83.20247404493375 H 0.0 **** 0.06
244 H 56.009479526024364 37.51292622896574 84.75236404014333 H 0.0 **** 0.06
245 H 56.54464508359317 35.8677050710979 84.33443786711854 H 0.0 **** 0.06
246 C 59.303820341766595 1.1802295198079378 86.65763762851594 C 0.0 **** -0.24
247 H 60.27100310906218 0.6917522276877719 86.5387049195486 H 0.0 **** 0.06
248 H 59.15400805323816 1.8917032263568387 85.8454800052927 H 0.0 **** 0.06
249 H 59.27675207321619 1.7050037836072818 87.61196082534278 H 0.0 **** 0.06
250 H 58.51292308244439 0.4296879196754446 86.63342068048865 H 0.0 **** 0.06
251 C 13.783054661018923 31.285212882916483 89.69762259182131 C 0.0 **** -0.24
252 H 12.936814261868193 31.1831829833082 90.37626283726338 H 0.0 **** 0.06
253 H 13.791806210944372 32.29074281808687 89.27722099486574 H 0.0 **** 0.06
254 H 13.69236741525151 30.554958118774778 88.89223046769666 H 0.0 **** 0.06
255 H 14.709981791402896 31.110462012524152 90.24330175395318 H 0.0 **** 0.06
256 C 113.41034815933274 56.615423494696245 15.776685194964884 C 0.0 **** -0.24
257 H 114.08925081608425 55.76400564057866 15.804956915951049 H 0.0 **** 0.06
258 H 113.74352969273104 57.32041685284287 15.014956244707516 H 0.0 **** 0.06
259 H 113.40347585264256 57.10689735502683 16.74941524631594 H 0.0 **** 0.06
260 H 112.40418008756112 56.27049551585816 15.53714586523066 H 0.0 **** 0.06
261 C 37.746096422832466 16.102781943104844 15.080313715481907 C 0.0 **** -0.24
262 H 38.23349414521334 17.03266808757769 14.788101898571085 H 0.0 **** 0.06
263 H 38.46511719654592 15.28544095561412 15.033544694288821 H 0.0 **** 0.06
264 H 36.91807797930437 15.897945162270958 14.40301850501723 H 0.0 **** 0.06
265 H 37.367943070820445 16.196210943206324 16.098745188666328 H 0.0 **** 0.06
266 C 33.896520249690525 11.11737407073619 73.36943785295375 C 0.0 **** -0.24
267 H 33.706379585590355 10.66793164009438 74.34437406358566 H 0.0 **** 0.06
268 H 34.57139006514677 10.477535636811666 72.80056696696874 H 0.0 **** 0.06
269 H 34.35202542144805 12.097785891723959 73.50509623508395 H 0.0 **** 0.06
270 H 32.95532388647774 11.225778811735935 72.82940504221443 H 0.0 **** 0.06
271 C 110.20140762749047 109.06195670246888 78.42397893996502 C 0.0 **** -0.24
272 H 109.81926387889932 109.5373071568038 77.52072889656989 H 0.0 **** 0.06
273 H 110.51134740512548 108.04254148189253 78.19369323101853 H 0.0 **** 0.06
274 H 109.41832990464482 109.04119857723158 79.18197098446588 H 0.0 **** 0.06
275 H 111.05478862910073 109.62696766547563 78.79835977094024 H 0.0 **** 0.06
276 C 62.85775310583068 11.068143038330874 68.42230782711995 C 0.0 **** -0.24
277 H 63.645367016097396 11.15551324620543 67.67460917936788 H 0.0 **** 0.06
278 H 63.24201264798167 10.541284252891018 69.29547903234803 H 0.0 **** 0.06
279 H 62.01863460389197 10.513384197420436 68.00261827831403 H 0.0 **** 0.06
280 H 62.52455823926702 12.063992011893362 68.7160332233635 H 0.0 **** 0.06
281 C 88.581080341762 46.733080386414606 90.93730098875311 C 0.0 **** -0.24
282 H 87.5106950277845 46.71305799564228 91.14316978349981 H 0.0 **** 0.06
283 H 89.11742649621186 47.0409907226828 91.83477386965177 H 0.0 **** 0.06
284 H 88.78281341392511 47.439592176809974 90.13140739716603 H 0.0 **** 0.06
285 H 88.91201445562479 45.73808703339416 90.63818989786229 H 0.0 **** 0.06
286 C 111.8018090982177 21.82069748319452 37.8119462168774 C 0.0 **** -0.24
287 H 110.7915791342782 21.87463502518591 37.407239325617354 H 0.0 **** 0.06
288 H 111.76484597035713 21.432692164585603 38.83053947744037 H 0.0 **** 0.06
289 H 112.24361600418794 22.818026988930995 37.81812448714214 H 0.0 **** 0.06
290 H 112.40687699674531 21.15893047296906 37.19317182382548 H 0.0 **** 0.06
291 C 79.1827652747046 29.174468537960593 9.072141118461431 C 0.0 **** -0.24
292 H 80.22331873599342 29.4842765313345 9.169880905548453 H 0.0 **** 0.06
293 H 79.12286634221667 28.086511433236296 9.11493206709359 H 0.0 **** 0.06
294 H 78.78947078759381 29.523286396796323 8.11664429920397 H 0.0 **** 0.06
295 H 78.59811216986435 29.60355591785418 9.885490542587576 H 0.0 **** 0.06
296 C 26.22721541773224 82.56606942877792 109.70610514574633 C 0.0 **** -0.24
297 H 26.859558758502907 82.9068801924947 110.52568336349873 H 0.0 **** 0.06
298 H 26.52869746280249 81.56192604709084 109.40852796338834 H 0.0 **** 0.06
299 H 26.334565876761225 83.24377372184831 108.85873665081868 H 0.0 **** 0.06
300 H 25.18672870429487 82.55203498762953 110.03083117875019 H 0.0 **** 0.06
301 C 90.59872954574965 99.02142102842224 111.11347920363461 C 0.0 **** -0.24
302 H 90.81839368474334 98.16055332566627 111.74672650617751 H 0.0 **** 0.06
303 H 89.91879707319464 98.72031285997235 110.31607196809037 H 0.0 **** 0.06
304 H 91.5250170375387 99.39824679601338 110.67952944865394 H 0.0 **** 0.06
305 H 90.1329207414112 99.80291155652404 111.71233992715133 H 0.0 **** 0.06
306 C 103.21364806171866 40.82488218125988 1.6218135837332568 C 0.0 **** -0.24
307 H 103.39917893329084 40.011231216836364 0.9215537143825827 H 0.0 **** 0.06
308 H 102.14049927011467 40.9200132167519 1.792270044966358 H 0.0 **** 0.06
309 H 103.5996574757441 41.756133922723876 1.2085589183561751 H 0.0 **** 0.06
310 H 103.71355024954806 40.61224275465804 2.5671256310555464 H 0.0 **** 0.06
311 C 69.37753812040349 66.58065565940143 64.42887280614924 C 0.0 **** -0.24
312 H 69.483888112078 66.76400264992549 65.49846813301582 H 0.0 **** 0.06
313 H 68.61614709472853 65.81702859269296 64.26627505054975 H 0.0 **** 0.06
314 H 70.32904645881354 66.23799513948808 64.02297851958976 H 0.0 **** 0.06
315 H 69.07986700945358 67.5032495950615 63.93049554200515 H 0.0 **** 0.06
316 C 14.853400962032385 23.511848035421508 17.254555992079077 C 0.0 **** -0.24
317 H 14.77842923227557 23.258197530248907 16.19751097427624 H 0.0 **** 0.06
318 H 14.149461771766664 22.905882536245258 17.82453314573442 H 0.0 **** 0.06
319 H 14.61915024391784 24.56788198088364 17.391856787493737 H 0.0 **** 0.06
320 H 15.86749367446216 23.317430252781833 17.603958710634004 H 0.0 **** 0.06
321 C 57.856767651641036 86.91535649801008 17.390175279752203 C 0.0 **** -0.24
322 H 58.16113203081213 87.800888932189 17.94798185767066 H 0.0 **** 0.06
323 H 58.700785228469655 86.22841887337864 17.311691427103806 H 0.0 **** 0.06
324 H 57.53188153620154 87.2079751685967 16.392443954772265 H 0.0 **** 0.06
325 H 57.035600905108836 86.42319415303805 17.91050105059443 H 0.0 **** 0.06
326 C 42.90146556652003 67.41737931047078 56.61809256835204 C 0.0 **** -0.24
327 H 43.9875530998026 67.33448616018248 56.646990730172746 H 0.0 **** 0.06
328 H 42.466341879186395 66.75481377192864 57.36743957552291 H 0.0 **** 0.06
329 H 42.54188078373325 67.13415760529 55.62923779589201 H 0.0 **** 0.06
330 H 42.60984324346249 68.44700529394598 56.829725303734165 H 0.0 **** 0.06
331 C 32.55657615218505 56.59014087921548 38.46570543121328 C 0.0 **** -0.24
332 H 31.835230329932422 56.0738803245589 37.8322894562765 H 0.0 **** 0.06
333 H 32.058290574268895 57.39949612304986 38.99870832837237 H 0.0 **** 0.06
334 H 33.35560609341646 56.9987815646673 37.8464780566037 H 0.0 **** 0.06
335 H 32.97802332418755 55.88575781949896 39.184216704760445 H 0.0 **** 0.06
336 C 91.39856664797031 77.68282137654813 79.65577639530032 C 0.0 **** -0.24
337 H 90.69248381284928 76.866447946736 79.81176382472987 H 0.0 **** 0.06
338 H 91.97231288487217 77.84621787182078 80.56891027690999 H 0.0 **** 0.06
339 H 90.85322359714172 78.59108527246121 79.40115087856785 H 0.0 **** 0.06
340 H 92.07576675851175 77.42547551284065 78.8420094688218 H 0.0 **** 0.06
341 C 30.63164920721681 0.8133288554577405 76.00945388781042 C 0.0 **** -0.24
342 H 31.570013003381405 0.3905964828965409 75.64920767648908 H 0.0 **** 0.06
343 H 30.83585143179471 1.5108173742372344 76.82250483116428 H 0.0 **** 0.06
344 H 29.98776961014022 0.01203020512687658 76.37080972690683 H 0.0 **** 0.06
345 H 30.134299614533745 1.3396279599815841 75.19568543055345 H 0.0 **** 0.06
346 C 10.160306327211856 36.261114199115426 49.30774642336803 C 0.0 **** -0.24
347 H 10.834857615072394 36.8788312332899 49.901075851309656 H 0.0 **** 0.06
348 H 9.14689989036117 36.351901041784956 49.69900555663014 H 0.0 **** 0.06
349 H 10.479740857694253 35.22078929779295 49.362181592549064 H 0.0 **** 0.06
350 H 10.18203667954424 36.59530186442072 48.26975459569371 H 0.0 **** 0.06
351 C 83.55271723185488 55.96269812558441 92.3380257064799 C 0.0 **** -0.24
352 H 84.04180576182941 56.01109213122987 91.3652055924286 H 0.0 **** 0.06
353 H 83.74887415897214 56.883619790630405 92.88885999044743 H 0.0 **** 0.06
354 H 83.94330854329421 55.113362952011556 92.89882670780376 H 0.0 **** 0.06
355 H 82.47902389793676 55.84368585470622 92.19852601556923 H 0.0 **** 0.06
356 C 88.89756954197003 37.538842514149856 101.28144288753029 C 0.0 **** -0.24
357 H 87.85543775906635 37.335845277903445 101.0369128015686 H 0.0 **** 0.06
358 H 89.18129485916191 36.96486773745364 102.16331216807208 H 0.0 **** 0.06
359 H 89.02311261453528 38.602937069871665 101.48430079468042 H 0.0 **** 0.06
360 H 89.53084984181294 37.25226738365029 100.44197144788728 H 0.0 **** 0.06
361 C 17.450563830511214 24.569027998560628 26.6151463556169 C 0.0 **** -0.24
362 H 17.02550138711257 24.830291839855704 27.583759603682893 H 0.0 **** 0.06
363 H 16.9390203133442 25.12759374073474 25.831950954076802 H 0.0 **** 0.06
364 H 17.326455539828885 23.50065780108099 26.43984439912026 H 0.0 **** 0.06
365 H 18.512416807685383 24.81756736345031 26.60586916423955 H 0.0 **** 0.06
366 C 51.75533811399555 54.73800684907857 30.499126011454763 C 0.0 **** -0.24
367 H 52.68226090268129 55.249897545989256 30.759601858935483 H 0.0 **** 0.06
368 H 51.74640084308112 54.52535395639171 29.430638125695964 H 0.0 **** 0.06
369 H 50.90581755980892 55.37370915711307 30.751292684398464 H 0.0 **** 0.06
370 H 51.68747722051009 53.80414588586643 31.05708582182841 H 0.0 **** 0.06
371 C 114.60992594929473 76.6084201075997 46.51078524179104 C 0.0 **** -0.24
372 H 115.48255152071334 76.15307835170917 46.97904270313245 H 0.0 **** 0.06
373 H 114.64454494193136 76.43886877400462 45.43443983004019 H 0.0 **** 0.06
374 H 114.60810574951226 77.68018990991939 46.71166278025825 H 0.0 **** 0.06
375 H 113.70373900774712 76.16122543455492 46.920700802916144 H 0.0 **** 0.06
376 C 6.229385097027318 14.350602917788859 57.38641738332612 C 0.0 **** -0.24
377 H 7.201166259452975 13.873817800543822 57.260461649429175 H 0.0 **** 0.06
378 H 6.2815908892052335 15.07158660882478 58.20252010543837 H 0.0 **** 0.06
379 H 5.481439955891631 13.592621088169494 57.61835518987276 H 0.0 **** 0.06
380 H 5.95415769733745 14.863503737418206 56.46507968312086 H 0.0 **** 0.06
381 C 64.37898994526262 51.41634714685108 56.41958343351013 C 0.0 **** -0.24
382 H 64.11496213048895 50.76051142662368 57.248448503305355 H 0.0 **** 0.06
383 H 64.6836290390417 52.388434265718615 56.80872900008512 H 0.0 **** 0.06
384 H 63.51526106459352 51.54108664998125 55.76554895273762 H 0.0 **** 0.06
385 H 65.2012247055602 50.97641309166136 55.855285128642294 H 0.0 **** 0.06
386 C 21.67440832973368 95.58490488722195 58.46545446012675 C 0.0 **** -0.24
387 H 21.953222502335223 94.7945798722771 57.768899688391315 H 0.0 **** 0.06
388 H 21.071340254374718 95.16479644451316 59.269033468664986 H 0.0 **** 0.06
389 H 21.09932539272647 96.34661153485315 57.93767019491298 H 0.0 **** 0.06
390 H 22.57552343900352 96.03499235831225 58.882752216786514 H 0.0 **** 0.06
391 C 88.6438232596621 37.302565301415825 23.22534691383376 C 0.0 **** -0.24
392 H 89.0641153373905 37.29334124560842 24.2319010065101 H 0.0 **** 0.06
393 H 87.79320862667825 37.98425772398457 23.194061049208784 H 0.0 **** 0.06
394 H 88.31569467829136 36.298435663075 22.959859131744395 H 0.0 **** 0.06
395 H 89.40355739426528 37.6369800779147 22.518528418304697 H 0.0 **** 0.06
396 C 104.31418348705375 60.26265135509925 30.964386160989648 C 0.0 **** -0.24
397 H 104.21266748111702 59.444330817683124 30.25106884661909 H 0.0 **** 0.06
398 H 103.79057183040175 60.00763794599186 31.885813616379494 H 0.0 **** 0.06
399 H 103.88358137451053 61.1694658857092 30.54068492945595 H 0.0 **** 0.06
400 H 105.36978552871278 60.428312889476786 31.17947947616119 H 0.0 **** 0.06
401 C 58.1693759090802 63.52202599833325 44.55282647417147 C 0.0 **** -0.24
402 H 57.36398686525996 64.16265086995107 44.19380306631251 H 0.0 **** 0.06
403 H 58.474075897268335 63.84535212578142 45.548149378371534 H 0.0 **** 0.06
404 H 59.01743395877014 63.58962475310936 43.87220584188924 H 0.0 **** 0.06
405 H 57.819826945491286 62.489578277839 44.596482982466625 H 0.0 **** 0.06
406 C 93.18633540337407 75.87034437819823 110.02172304191105 C 0.0 **** -0.24
407 H 93.68091810470139 75.68035571240007 109.06946531501657 H 0.0 **** 0.06
408 H 93.3522538562001 76.90765569725363 110.31599156591098 H 0.0 **** 0.06
409 H 93.59730460857344 75.20726620713485 110.7822209963079 H 0.0 **** 0.06
410 H 92.11639363348661 75.68794232669889 109.91869544114715 H 0.0 **** 0.06
411 C 0.6944689333359406 4.646418171627147 7.860197922509968 C 0.0 **** -0.24
412 H 0.5228085991392106 4.1416892869986555 8.810683593418844 H 0.0 **** 0.06
413 H 1.6001537792418503 5.24895462322894 7.927683663742954 H 0.0 **** 0.06
414 H -0.15538317449943406 5.29034252392205 7.632589901980879 H 0.0 **** 0.06
415 H 0.8089610211131628 3.9038452908847034 7.070548233801404 H 0.0 **** 0.06
416 C 33.37950781715785 14.552632132842604 38.56357792180057 C 0.0 **** -0.24
417 H 33.27079082208876 14.62237661041263 39.64530284229164 H 0.0 **** 0.06
418 H 32.399270788891315 14.414965206337143 38.108572791637584 H 0.0 **** 0.06
419 H 34.017321578072526 13.703786540890292 38.31690338578744 H 0.0 **** 0.06
420 H 33.8314677774602 15.46886080756849 38.183725634810685 H 0.0 **** 0.06
421 C 83.81515614370188 56.33451281391294 52.0779799895281 C 0.0 **** -0.24
422 H 84.88214540988193 56.23406135603864 52.27741664017418 H 0.0 **** 0.06
423 H 83.59017538510703 55.92245542964707 51.09427834625029 H 0.0 **** 0.06
424 H 83.5393438138603 57.38837275162943 52.10239920914225 H 0.0 **** 0.06
425 H 83.25094040259104 55.792261977636805 52.83730747524288 H 0.0 **** 0.06
426 C 71.22701840766413 31.656298376132384 19.51747259970142 C 0.0 **** -0.24
427 H 71.17112318462158 30.687358656022695 19.021287049005934 H 0.0 **** 0.06
428 H 72.27144995308468 31.954867801313753 19.61428515334478 H 0.0 **** 0.06
429 H 70.77710440843947 31.583305673818472 20.507160916005432 H 0.0 **** 0.06
430 H 70.69020447648273 32.397508505562485 18.926848519124007 H 0.0 **** 0.06
431 C 89.40107283732024 107.52759012440185 104.46899702355185 C 0.0 **** -0.24
432 H 90.1127492475015 107.85889743737184 103.71339021192244 H 0.0 **** 0.06
433 H 89.87604495970126 107.55315135787049 105.45032557511442 H 0.0 **** 0.06
434 H 89.08217303250018 106.50908316030439 104.2461830503612 H 0.0 **** 0.06
435 H 88.53533192032326 108.1892591575023 104.4674921466405 H 0.0 **** 0.06
436 C 33.65546462372552 64.42593952824319 107.92464809171294 C 0.0 **** -0.24
437 H 34.630339479900776 64.79551928767768 108.2420805244643 H 0.0 **** 0.06
438 H 32.89722307979188 65.18510825960794 108.11971531511676 H 0.0 **** 0.06
439 H 33.413211818719496 63.51929129757363 108.48001209545133 H 0.0 **** 0.06
440 H 33.681758665592014 64.20248744145073 106.85809507121706 H 0.0 **** 0.06
441 C 58.432552726708465 47.15321157349479 46.732891983624825 C 0.0 **** -0.24
442 H 58.69024161962689 47.864667466445695 45.949014161240456 H 0.0 **** 0.06
443 H 59.34403419694347 46.701547326443944 47.12701583080539 H 0.0 **** 0.06
444 H 57.79000123172075 46.37527211517239 46.320533729736866 H 0.0 **** 0.06
445 H 57.906823645439715 47.670144830393184 47.53586054486195 H 0.0 **** 0.06
446 C 105.93117704752402 93.4581565444402 1.5863845487128856 C 0.0 **** -0.24
447 H 105.66796512353507 92.52195107688527 1.0945712370700278 H 0.0 **** 0.06
448 H 106.45255881216268 94.10552793867072 0.880706198817677 H 0.0 **** 0.06
449 H 106.57951868387659 93.25130673529472 2.438240682338062 H 0.0 **** 0.06
450 H 105.02372347559832 93.95414689033208 1.9321564371341822 H 0.0 **** 0.06
451 C 18.00242027711721 35.50433771240381 93.61481323040061 C 0.0 **** -0.24
452 H 18.919726168734115 35.96322846528449 93.24477569050566 H 0.0 **** 0.06
453 H 17.97400718211523 34.4562726499032 93.3154724253364 H 0.0 **** 0.06
454 H 17.141502599015865 36.025892391264904 93.19825357796253 H 0.0 **** 0.06
455 H 17.977537027190436 35.572490063124064 94.70252810632263 H 0.0 **** 0.06
456 C 62.32963767249031 55.77450190090087 86.44884894457405 C 0.0 **** -0.24
457 H 62.84869629473012 55.294970924507254 87.27889518273031 H 0.0 **** 0.06
458 H 62.058533726228106 56.792648042541714 86.72981636838904 H 0.0 **** 0.06
459 H 61.427742184640834 55.211466886744745 86.21009882946043 H 0.0 **** 0.06
460 H 62.98441037924924 55.799329697747396 85.57765387471756 H 0.0 **** 0.06
461 C 8.941127385782707 35.98228861448415 14.189508843666601 C 0.0 **** -0.24
462 H 8.088425554082662 35.92034733663943 14.864526126546366 H 0.0 **** 0.06
463 H 8.66726463445066 35.56682499632458 13.219540932225698 H 0.0 **** 0.06
464 H 9.775032124213396 35.416029852734674 14.604829780812594 H 0.0 **** 0.06
465 H 9.23419986073435 37.025042010814175 14.069103646731207 H 0.0 **** 0.06
466 C 80.85872129196292 9.255489226166844 75.03094814082425 C 0.0 **** -0.24
467 H 80.01970903978156 8.715448191547097 75.47049189806444 H 0.0 **** 0.06
468 H 81.7007640149323 9.244637539175272 75.72306868840172 H 0.0 **** 0.06
469 H 80.563041919488 10.286208212621474 74.8343453581785 H 0.0 **** 0.06
470 H 81.14907911631718 8.776528830988894 74.09592631185154 H 0.0 **** 0.06
471 C 92.95859457316641 87.8035036766117 27.510809604462352 C 0.0 **** -0.24
472 H 93.46569546042593 87.99474881936646 28.456647092002434 H 0.0 **** 0.06
473 H 92.2767835695436 88.62551689792662 27.292080111265513 H 0.0 **** 0.06
474 H 92.39636821971908 86.8732366653075 27.581755216014123 H 0.0 **** 0.06
475 H 93.69729468287318 87.72213067422476 26.713276438324726 H 0.0 **** 0.06
476 C 44.87997691914785 107.0263472760953 66.78122962609018 C 0.0 **** -0.24
477 H 44.59531486380337 106.86477664130814 65.7416585685188 H 0.0 **** 0.06
478 H 45.78341063531286 106.45735673132106 67.00328119624169 H 0.0 **** 0.06
479 H 44.07215912446219 106.69516521499179 67.4347933037102 H 0.0 **** 0.06
480 H 45.06894575343529 108.08716870251482 66.94556535711209 H 0.0 **** 0.06
481 C 81.03973205995088 52.488845694344896 9.113795083607812 C 0.0 **** -0.24
482 H 81.53982965651089 52.2749762359901 8.168829559184644 H 0.0 **** 0.06
483 H 79.96055279923914 52.50013940204339 8.957932376911401 H 0.0 **** 0.06
484 H 81.36451090696113 53.460702152411265 9.48492209409909 H 0.0 **** 0.06
485 H 81.29360176921357 51.71796453643847 9.840623744183063 H 0.0 **** 0.06
486 C 108.76151777623092 59.25401523512187 17.825628775075415 C 0.0 **** -0.24
487 H 108.3399170830362 59.034447366676375 16.844723396110766 H 0.0 **** 0.06
488 H 108.30776232289286 58.600765064922115 18.57011429461292 H 0.0 **** 0.06
489 H 108.56101114360234 60.29360584327037 18.082063820849783 H 0.0 **** 0.06
490 H 109.83871325098 59.08758515678281 17.802595767037417 H 0.0 **** 0.06
491 C 72.39542954022664 36.19516950127067 34.29343477765295 C 0.0 **** -0.24
492 H 72.22428144480693 36.46515122115011 33.25157551224845 H 0.0 **** 0.06
493 H 72.35918136899784 37.093364172022504 34.91173655370528 H 0.0 **** 0.06
494 H 73.37494034413726 35.72582716658961 34.391215037631554 H 0.0 **** 0.06
495 H 71.62400690779634 35.49858162519172 34.61990214097207 H 0.0 **** 0.06
496 C 106.07755484683301 77.09254674289217 92.02850213321125 C 0.0 **** -0.24
497 H 105.53848511899015 76.28877685332992 92.53026538882882 H 0.0 **** 0.06
498 H 107.1418245853974 76.85865440923624 92.0091932276036 H 0.0 **** 0.06
499 H 105.92017970791741 78.02683188899503 92.56684482100793 H 0.0 **** 0.06
500 H 105.70895636913116 77.19534540141436 91.00744620795707 H 0.0 **** 0.06
501 C 67.38223312674637 12.766528200691596 69.0672827927803 C 0.0 **** -0.24
502 H 68.43644834212984 12.856567371986216 69.32817884417477 H 0.0 **** 0.06
503 H 66.78295366553778 12.751789701355733 69.97748466165791 H 0.0 **** 0.06
504 H 67.22306138686884 11.842038360200263 68.51150991510352 H 0.0 **** 0.06
505 H 67.08680006337849 13.61591542049598 68.45103508879643 H 0.0 **** 0.06
506 C 111.72415607921305 70.3267552693461 106.59390294427584 C 0.0 **** -0.24
507 H 111.38818638853388 70.03888293597626 107.59011398883712 H 0.0 **** 0.06
508 H 112.39864544900583 71.17980803574588 106.67062742362305 H 0.0 **** 0.06
509 H 110.86249184755088 70.59849328534843 105.9845403840792 H 0.0 **** 0.06
510 H 112.24739623888254 69.48972733684128 106.13131938923073 H 0.0 **** 0.06
511 C 57.79528992452239 86.09387886681856 53.49558487437444 C 0.0 **** -0.24
512 H 56.74011775766502 86.2361485015598 53.730564970643485 H 0.0 **** 0.06
513 H 57.937741846124396 86.14371878763586 52.41563393035056 H 0.0 **** 0.06
514 H 58.11972926593825 85.11993885406758 53.86057317394043 H 0.0 **** 0.06
515 H 58.38237023058758 86.87624948431903 53.976084051589226 H 0.0 **** 0.06
516 C 104.30678580633466 43.41745098947763 48.97999460926658 C 0.0 **** -0.24
517 H 105.02703078204658 42.605695511349886 49.08114678719633 H 0.0 **** 0.06
518 H 104.81854700094456 44.313796421450306 48.62705551729374 H 0.0 **** 0.06
519 H 103.84732230072859 43.618363911537756 49.94786228965688 H 0.0 **** 0.06
520 H 103.53671959274303 43.133319345333874 48.262920150288664 H 0.0 **** 0.06
521 C 98.84093160080235 11.806975634818102 113.91512789303982 C 0.0 **** -0.24
522 H 98.15110905645412 11.77863844429055 113.07147308647268 H 0.0 **** 0.06
523 H 99.85514387649252 11.965618900613222 113.54960458553592 H 0.0 **** 0.06
524 H 98.79293474566146 10.86033586440648 114.45492794718129 H 0.0 **** 0.06
525 H 98.56285721918192 12.62090551440474 114.58387768387988 H 0.0 **** 0.06
526 C 1.6730901596460122 4.704292062478714 89.38592822842352 C 0.0 **** -0.24
527 H 1.8535906454828392 5.301620563798792 88.49243465369653 H 0.0 **** 0.06
528 H 1.0271432180944249 3.8627536890655847 89.13523463240841 H 0.0 **** 0.06
529 H 1.1888301831547814 5.320719513002075 90.14331256191713 H 0.0 **** 0.06
530 H 2.6214091745687718 4.331962119686352 89.7729811881565 H 0.0 **** 0.06
531 C 47.078935700048135 38.164862860072816 23.081741936779878 C 0.0 **** -0.24
532 H 47.46881793406163 39.179467120329505 23.003905198090962 H 0.0 **** 0.06
533 H 46.166483765451915 38.080570993259485 22.49084859305691 H 0.0 **** 0.06
534 H 46.85973433355423 37.938468030026144 24.124985278889227 H 0.0 **** 0.06
535 H 47.82187823654803 37.46109859006762 22.705330139530275 H 0.0 **** 0.06
536 C 45.14053758386177 81.05690257430402 6.5107492447535265 C 0.0 **** -0.24
537 H 45.651111080598355 80.15905613252016 6.162163475942236 H 0.0 **** 0.06
538 H 44.06654572354719 80.87092605710802 6.551588744820236 H 0.0 **** 0.06
539 H 45.34056404647717 81.87852139205569 5.822373959266542 H 0.0 **** 0.06
540 H 45.50320971063596 81.31811292644264 7.504133132073065 H 0.0 **** 0.06
541 C 36.920859763472485 35.53144408894792 95.91029729783146 C 0.0 **** -0.24
542 H 37.36777642959526 36.075387660081276 96.74210220604064 H 0.0 **** 0.06
543 H 37.701894351162686 35.22655615623444 95.21323710044634 H 0.0 **** 0.06
544 H 36.20736429168921 36.176854423101474 95.39743640251305 H 0.0 **** 0.06
545 H 36.40529298878664 34.649094205581946 96.28895032770195 H 0.0 **** 0.06
546 C 73.62328468871085 86.61264839753727 73.85130985033447 C 0.0 **** -0.24
547 H 74.22976833369381 86.53832401428258 74.7534617104049 H 0.0 **** 0.06
548 H 73.87144665466197 85.79124809799498 73.17864070546841 H 0.0 **** 0.06
549 H 73.82477422836797 87.56266320372697 73.35598933958192 H 0.0 **** 0.06
550 H 72.56766251408355 86.5583024000822 74.11800426167258 H 0.0 **** 0.06
551 C 87.05333220874371 102.5248075184722 35.57945223576962 C 0.0 **** -0.24
552 H 87.95924103174528 102.85569069977375 35.072228379212845 H 0.0 **** 0.06
553 H 87.03881279810548 102.92414988046647 36.59376552184267 H 0.0 **** 0.06
554 H 87.0357414252943 101.43547192490891 35.6176504182892 H 0.0 **** 0.06
555 H 86.18006106212653 102.88401758709185 35.035008315394066 H 0.0 **** 0.06
556 C 82.60534017045097 95.34123582169207 95.09394369623676 C 0.0 **** -0.24
557 H 81.87351174283597 95.46556315025825 95.89155975170642 H 0.0 **** 0.06
558 H 83.56496291472268 95.7451344716088 95.41445507791865 H 0.0 **** 0.06
559 H 82.26514485237661 95.87206085741397 94.20402540870943 H 0.0 **** 0.06
560 H 82.71543706763327 94.28055236570334 94.86472126024984 H 0.0 **** 0.06
561 C 76.2020417444179 45.53465179217457 95.05724064123545 C 0.0 **** -0.24
562 H 75.51695309703297 46.37378402369683 94.93565031637134 H 0.0 **** 0.06
563 H 76.18521617628801 45.19868705314724 96.09423686690891 H 0.0 **** 0.06
564 H 77.21138096349495 45.848792561363425 94.79355444838552 H 0.0 **** 0.06
565 H 75.89388150592794 44.71692679818658 94.40498631130734 H 0.0 **** 0.06
566 C 100.50162944691303 14.542595459993748 33.38730718683007 C 0.0 **** -0.24
567 H 99.59429275008645 15.071368861252694 33.09797126428799 H 0.0 **** 0.06
568 H 100.41311420937349 14.207823468466131 34.421748788421624 H 0.0 **** 0.06
569 H 101.35670870632987 15.21160449214554 33.293996461275526 H 0.0 **** 0.06
570 H 100.64271353890129 13.678722814099928 32.73658914437883 H 0.0 **** 0.06
571 C 86.93782403517605 98.31979829070423 37.46921350429247 C 0.0 **** -0.24
572 H 87.22028756888307 98.54891423556563 38.49643390596839 H 0.0 **** 0.06
573 H 86.00965327528317 98.83646590905948 37.224433640749965 H 0.0 **** 0.06
574 H 86.79589843865904 97.2445258167071 37.36166920902993 H 0.0 **** 0.06
575 H 87.72670053453021 98.65074995310738 36.79317100211915 H 0.0 **** 0.06
576 C 35.5757441715445 46.53847725626204 67.40023722589154 C 0.0 **** -0.24
577 H 34.765811802411136 47.12019780906732 66.96168023816944 H 0.0 **** 0.06
578 H 36.314956679015864 46.30668434551521 66.63252337840419 H 0.0 **** 0.06
579 H 35.17566697547457 45.61095248742308 67.81138278228508 H 0.0 **** 0.06
580 H 36.046652577990756 47.11493107712704 68.19618746941677 H 0.0 **** 0.06
581 C 22.95711549514209 66.75655283626796 95.72710435030251 C 0.0 **** -0.24
582 H 23.56371707656956 65.92459376412431 95.36809010328204 H 0.0 **** 0.06
583 H 21.98661593476558 66.38321188998516 96.05344876257888 H 0.0 **** 0.06
584 H 22.818227909043287 67.47804732797869 94.92225376538772 H 0.0 **** 0.06
585 H 23.461554731952276 67.23885407136076 96.56362336215781 H 0.0 **** 0.06
586 C 67.71932519715223 33.79398388211007 74.27437662466677 C 0.0 **** -0.24
587 H 66.67036313727522 33.963342744061265 74.02949956124364 H 0.0 **** 0.06
588 H 68.28823612998487 34.70335378439188 74.08630439113759 H 0.0 **** 0.06
589 H 68.10983066137119 32.984916235995456 73.65644731873722 H 0.0 **** 0.06
590 H 67.80576501702193 33.521054889521565 75.32607737722128 H 0.0 **** 0.06
591 C 53.43898117183707 25.510495528111505 40.93282273916162 C 0.0 **** -0.24
592 H 53.769291157020916 25.037585326167346 41.858327940277036 H 0.0 **** 0.06
593 H 53.8275927272812 24.952918101678733 40.08131175100377 H 0.0 **** 0.06
594 H 53.80787651229713 26.535253812810026 40.89672278710452 H 0.0 **** 0.06
595 H 52.34894837830328 25.51546469375012 40.89680261089765 H 0.0 **** 0.06
596 C 110.95573329259128 8.743211841800107 29.02369524817084 C 0.0 **** -0.24
597 H 110.24700887859166 7.998932349484415 28.660082381813254 H 0.0 **** 0.06
598 H 111.72666542415269 8.90828342212211 28.27040139505789 H 0.0 **** 0.06
599 H 111.41744327957733 8.385276134468334 29.94422526055905 H 0.0 **** 0.06
600 H 110.43177448842758 9.67813433186014 29.219816651671465 H 0.0 **** 0.06
601 C 48.91440244266755 49.52552383475083 30.737257555104335 C 0.0 **** -0.24
602 H 49.55348954406344 49.186164785676226 31.55300366756518 H 0.0 **** 0.06
603 H 49.31833151573812 50.447442391323705 30.319064984631595 H 0.0 **** 0.06
604 H 47.90904020097571 49.70845059240045 31.116475320829764 H 0.0 **** 0.06
605 H 48.877324691784054 48.759943107404354 29.96264480608388 H 0.0 **** 0.06
606 C 10.564672562713412 50.03390808696746 31.48366492112352 C 0.0 **** -0.24
607 H 11.456963764638175 49.4130529828505 31.569133938627758 H 0.0 **** 0.06
608 H 10.243469398117384 50.066804157880725 30.44325209408538 H 0.0 **** 0.06
609 H 10.791837144410096 51.043193778360845 31.826640413278064 H 0.0 **** 0.06
610 H 9.76883690262116 49.61186751408559 32.097789452965266 H 0.0 **** 0.06
611 C 0.9795675999527447 52.78712725267999 23.949142531077257 C 0.0 **** -0.24
612 H 0.9320841305455918 52.828680886721614 25.03674912339426 H 0.0 **** 0.06
613 H 0.8910652440609894 53.79426547334361 23.542270967828472 H 0.0 **** 0.06
614 H 0.16149876483930647 52.17068028859093 23.573272589259176 H 0.0 **** 0.06
615 H 1.9304310666419422 52.352416357629885 23.643419497786255 H 0.0 **** 0.06
616 C 67.17535313053139 65.5431353861717 27.583530920051203 C 0.0 **** -0.24
617 H 66.43651229372006 65.87522100433175 26.85502502088889 H 0.0 **** 0.06
618 H 67.10319449841239 66.15919917181559 28.48030354771288 H 0.0 **** 0.06
619 H 68.1745087366657 65.63861881756424 27.156643778246234 H 0.0 **** 0.06
620 H 66.98875602661695 64.50050625731622 27.840901424122137 H 0.0 **** 0.06
621 C 82.74175293807241 9.560983745306231 4.306671592919548 C 0.0 **** -0.24
622 H 81.66284928494588 9.413977411806727 4.33343911540096 H 0.0 **** 0.06
623 H 83.22805452881073 8.629328358357071 4.015304764397412 H 0.0 **** 0.06
624 H 83.09157726419309 9.859884249791861 5.294904862937921 H 0.0 **** 0.06
625 H 82.98569993552945 10.340053185157373 3.584112079809911 H 0.0 **** 0.06
626 C 101.72393432039803 96.50656980059625 81.9296050824527 C 0.0 **** -0.24
627 H 100.6772445692165 96.26040017812218 82.10663220317906 H 0.0 **** 0.06
628 H 102.31605695034733 95.59083164064319 81.92377145967322 H 0.0 **** 0.06
629 H 102.08134400363005 97.16483811643499 82.72215713695184 H 0.0 **** 0.06
630 H 101.82130155596315 97.00924293802399 80.96810063109939 H 0.0 **** 0.06
631 C 108.23603585720457 76.88954510511587 19.80245595665599 C 0.0 **** -0.24
632 H 108.89261817011968 76.01924060648487 19.800376359143144 H 0.0 **** 0.06
633 H 108.49635392307047 77.54116011146647 18.966810644196244 H 0.0 **** 0.06
634 H 108.35761389894353 77.43409872826548 20.738715361940706 H 0.0 **** 0.06
635 H 107.20126396749936 76.56412468924066 19.70217054359111 H 0.0 **** 0.06
636 C 53.28860329962445 107.96526888273839 88.94676409422408 C 0.0 **** -0.24
637 H 53.36053894752508 106.92988809149331 89.27843167179626 H 0.0 **** 0.06
638 H 54.21484028508091 108.25191481264947 88.44849937968132 H 0.0 **** 0.06
639 H 53.12299781638471 108.61205126404377 89.80806769953051 H 0.0 **** 0.06
640 H 52.45472957501658 108.06601153265976 88.25070505111285 H 0.0 **** 0.06
641 C 55.51127408295861 24.40199070472616 103.46353668219348 C 0.0 **** -0.24
642 H 56.43952765695025 24.249733853805935 104.01504802293789 H 0.0 **** 0.06
643 H 55.70233606917009 24.29830956017699 102.3956499534982 H 0.0 **** 0.06
644 H 55.12617801096354 25.4004080502598 103.66999334630458 H 0.0 **** 0.06
645 H 54.77730689621137 23.658596463177872 103.77630142593846 H 0.0 **** 0.06
646 C 68.16913655105066 80.42953531742897 113.69444774024444 C 0.0 **** -0.24
647 H 68.76905932481466 81.28254346632984 114.01204392147821 H 0.0 **** 0.06
648 H 68.61535020885026 79.509834051758 114.07267452741158 H 0.0 **** 0.06
649 H 68.13329379672683 80.39567707951757 112.60553889478493 H 0.0 **** 0.06
650 H 67.15697490162455 80.53075441567351 114.08727861555238 H 0.0 **** 0.06
651 C 106.9687687608356 97.74578281827175 109.77139479892212 C 0.0 **** -0.24
652 H 107.26543458755324 96.91719830892255 109.12824189464212 H 0.0 **** 0.06
653 H 107.51270163761261 98.64406286202696 109.47874558848746 H 0.0 **** 0.06
654 H 107.19866184964847 97.50240239826618 110.8079060620068 H 0.0 **** 0.06
655 H 105.89733806357597 97.91929289025543 109.66706782057301 H 0.0 **** 0.06
656 C 55.101115615078314 98.76596281202578 48.26891865964001 C 0.0 **** -0.24
657 H 54.3128144900521 98.71016484777996 49.01999888766534 H 0.0 **** 0.06
658 H 55.859640756088204 99.48089994115077 48.590164914886856 H 0.0 **** 0.06
659 H 54.675493284072154 99.08978766754161 47.319171511880626 H 0.0 **** 0.06
660 H 55.5565139301009 97.78299879163075 48.14633932412738 H 0.0 **** 0.06
661 C 48.76219061429125 38.83501268095634 66.4922272581933 C 0.0 **** -0.24
662 H 48.42773301627436 39.09172662505267 67.4977185105136 H 0.0 **** 0.06
663 H 49.37411881230124 39.646378923443564 66.09482896596644 H 0.0 **** 0.06
664 H 47.89549556578712 38.68457116943637 65.84861666600467 H 0.0 **** 0.06
665 H 49.35197191412917 37.91957615051945 66.52866185092867 H 0.0 **** 0.06
666 C 23.062257477613002 85.77621225834179 97.46900240272676 C 0.0 **** -0.24
667 H 23.693625596776172 86.66522280429604 97.46792976679468 H 0.0 **** 0.06
668 H 22.231928493265457 85.92135186205519 98.16066552391102 H 0.0 **** 0.06
669 H 23.6505968652975 84.91399918965266 97.78290516230989 H 0.0 **** 0.06
670 H 22.673387552995763 85.60545805762641 96.46509416746518 H 0.0 **** 0.06
671 C 83.84288333652705 99.35080669840792 31.1671351924699 C 0.0 **** -0.24
672 H 83.8066130264622 100.40444824458723 30.89047383616571 H 0.0 **** 0.06
673 H 83.62843555650102 98.73764107217852 30.292238296318438 H 0.0 **** 0.06
674 H 83.10059594274554 99.1522788670465 31.94071758685775 H 0.0 **** 0.06
675 H 84.83580255126137 99.10867422153086 31.546090139633414 H 0.0 **** 0.06
676 C 90.0795189257079 84.3653669574087 48.42362110058883 C 0.0 **** -0.24
677 H 90.2341740278232 85.24421551478542 47.79743136576056 H 0.0 **** 0.06
678 H 89.32554065757489 83.72305341951974 47.969339683803554 H 0.0 **** 0.06
679 H 89.74322801814486 84.67816226125359 49.41263785144139 H 0.0 **** 0.06
680 H 91.0169781345362 83.81669035202981 48.51615643292263 H 0.0 **** 0.06
681 C 57.33439283956568 76.96001992257004 53.875311424256324 C 0.0 **** -0.24
682 H 56.78858439727577 76.80193138318954 52.94494658533799 H 0.0 **** 0.06
683 H 58.39756233135756 76.78553801937431 53.70628976362312 H 0.0 **** 0.06
684 H 56.96850518328941 76.26714738782705 54.63324773121005 H 0.0 **** 0.06
685 H 57.18368202975262 77.98459640817858 54.215944443446034 H 0.0 **** 0.06
686 C 111.40839515080492 11.336000097541131 111.54462766608074 C 0.0 **** -0.24
687 H 111.45142409301319 12.226072405298538 112.17274579209555 H 0.0 **** 0.06
688 H 111.48268804492413 10.446002492671639 112.17053377374745 H 0.0 **** 0.06
689 H 112.23546271754549 11.350608415897113 110.83509093825944 H 0.0 **** 0.06
690 H 110.46317320368911 11.320160405074361 111.00186331616268 H 0.0 **** 0.06
691 C 75.03657819301554 78.98531419713134 58.52547142098929 C 0.0 **** -0.24
692 H 75.6380776199116 78.54752271197543 57.728585838797216 H 0.0 **** 0.06
693 H 73.98614927362212 78.97409971529521 58.23581846254609 H 0.0 **** 0.06
694 H 75.35582759940476 80.01357090008662 58.69896664691642 H 0.0 **** 0.06
695 H 75.1680313745801 78.40568224907588 59.43982282367338 H 0.0 **** 0.06
696 C 92.55265074950353 101.50534511508414 84.8201483355212 C 0.0 **** -0.24
697 H 93.43743362239846 101.93053576476925 84.34675451197162 H 0.0 **** 0.06
698 H 92.43520224490251 101.93154419760293 85.81689744791845 H 0.0 **** 0.06
699 H 92.66628549997154 100.42452590303061 84.89694979860711 H 0.0 **** 0.06
700 H 91.67315086435252 101.73756987685891 84.21982329759682 H 0.0 **** 0.06
701 C 40.25756974568969 58.56349817311718 73.53817370163205 C 0.0 **** -0.24
702 H 40.52665544807434 57.842644928585344 74.30928391166526 H 0.0 **** 0.06
703 H 40.1769715441595 59.55682504243387 73.98050757715902 H 0.0 **** 0.06
704 H 39.300514796613925 58.283957368923666 73.09773265403874 H 0.0 **** 0.06
705 H 41.025312091575984 58.57124574938348 72.76424525565972 H 0.0 **** 0.06
706 C 43.796132334550975 57.482171869483324 90.73775277744213 C 0.0 **** -0.24
707 H 42.86317498557622 57.07641539609614 90.34491452131913 H 0.0 **** 0.06
708 H 43.57818966763887 58.334539970166915 91.38116723476304 H 0.0 **** 0.06
709 H 44.428180434521835 57.803606976605366 89.90915257336052 H 0.0 **** 0.06
710 H 44.31255944529647 56.71434632826703 91.31311743216106 H 0.0 **** 0.06
711 C 106.2396888989606 35.474056869516495 66.19601916154596 C 0.0 **** -0.24
712 H 106.3141471803421 36.1745946809794 67.02803077088913 H 0.0 **** 0.06
713 H 106.24791366386324 34.45330699703168 66.57953664612478 H 0.0 **** 0.06
714 H 107.08718229822381 35.616875743319675 65.52491386872714 H 0.0 **** 0.06
715 H 105.31220965769404 35.65086658958315 65.65313977741079 H 0.0 **** 0.06
716 C 12.165653210564049 0.2630227655230044 79.26138502435919 C 0.0 **** -0.24
717 H 12.106084408592558 -0.20631931665988645 78.27959578971092 H 0.0 **** 0.06
718 H 11.21033266785064 0.15147665555164735 79.7761167891332 H 0.0 **** 0.06
719 H 12.393215525736526 1.3221949535613362 79.14470094575466 H 0.0 **** 0.06
720 H 12.951297265005554 -0.21577698137218704 79.84607621658796 H 0.0 **** 0.06
721 C 5.04944630211746 91.6203613557982 53.25178618522221 C 0.0 **** -0.24
722 H 4.09445041209689 91.13764700507525 53.46088017515942 H 0.0 **** 0.06
723 H 5.853037413687602 90.88806111523179 53.3370581321087 H 0.0 **** 0.06
724 H 5.213416927628288 92.42631674619989 53.96852129232166 H 0.0 **** 0.06
725 H 5.035443760420122 92.03057274180632 52.24195347180784 H 0.0 **** 0.06
726 C 11.875898677606159 83.01000141311856 64.48263134617642 C 0.0 **** -0.24
727 H 12.063352337322414 83.78572826430593 65.2254715484106 H 0.0 **** 0.06
728 H 12.410808345857077 83.2513785322566 63.56332869348341 H 0.0 **** 0.06
729 H 10.806675846861992 82.95440283894467 64.2773025541232 H 0.0 **** 0.06
730 H 12.223484707824099 82.04999265199969 64.86394049736623 H 0.0 **** 0.06
731 C 46.97279697561032 47.62846175495095 1.3178755913029665 C 0.0 **** -0.24
732 H 46.49511438625942 47.96114893358985 2.2397585419995956 H 0.0 **** 0.06
733 H 46.24346356729944 47.10434865032108 0.7001055724039809 H 0.0 **** 0.06
734 H 47.79631185660584 46.95573517003521 1.5584286319128484 H 0.0 **** 0.06
735 H 47.35565811635732 48.4926088802774 0.7753522075464367 H 0.0 **** 0.06
736 C 6.151736837240151 4.227589167796793 86.67057270015198 C 0.0 **** -0.24
737 H 5.687617686886938 4.296516909163898 85.68660626332115 H 0.0 **** 0.06
738 H 6.723783815926424 5.135965763965572 86.86589526987616 H 0.0 **** 0.06
739 H 6.817302605714588 3.3650334949872445 86.6987410257044 H 0.0 **** 0.06
740 H 5.378051290007818 4.115508280418197 87.42968933375684 H 0.0 **** 0.06
741 C 78.1861567216524 37.25639361459205 43.73381706271317 C 0.0 **** -0.24
742 H 78.34833226524444 36.37070695957893 44.3488104325948 H 0.0 **** 0.06
743 H 77.4712097717657 37.024048913956186 42.944442398059266 H 0.0 **** 0.06
744 H 79.131985828376 37.56767698073222 43.28891415603567 H 0.0 **** 0.06
745 H 77.79483681055927 38.06237801671967 44.354283341506545 H 0.0 **** 0.06
746 C 58.91011022447182 47.964501833475424 12.1736061456084 C 0.0 **** -0.24
747 H 59.133341750125965 47.9457096970138 13.240901870371733 H 0.0 **** 0.06
748 H 59.50639114126497 48.73966546697247 11.691898781448781 H 0.0 **** 0.06
749 H 57.85110343594573 48.17567679262868 12.027488812717266 H 0.0 **** 0.06
750 H 59.151870077500575 46.99615588414298 11.735628015705192 H 0.0 **** 0.06
751 C 82.65401051300883 50.657052827632405 93.30171121693456 C 0.0 **** -0.24
752 H 81.59145354732708 50.519412454311315 93.09960872535777 H 0.0 **** 0.06
753 H 83.02267611725692 51.516047628986364 92.74001091842479 H 0.0 **** 0.06
754 H 83.20028340108883 49.763125993325616 93.00004695893361 H 0.0 **** 0.06
755 H 82.80116532093328 50.82975941503449 94.3688417494316 H 0.0 **** 0.06
756 C 6.868748872222838 81.5339835809558 23.81112926925516 C 0.0 **** -0.24
757 H 7.495734291857332 80.81907570169994 24.342998148036884 H 0.0 **** 0.06
758 H 6.4531560168449005 81.06017668331134 22.921140941281337 H 0.0 **** 0.06
759 H 7.468978998473418 82.39526214459543 23.51758098748209 H 0.0 **** 0.06
760 H 6.057948628699961 81.85976696178072 24.462027615176538 H 0.0 **** 0.06
761 C 85.82990542245108 65.66145545749362 56.716085919464945 C 0.0 **** -0.24
762 H 86.4031732589774 66.22147290690464 57.45543431024939 H 0.0 **** 0.06
763 H 86.27383773079328 65.80329202193457 55.73063776758434 H 0.0 **** 0.06
764 H 84.80116739375845 66.02034131844704 56.706947590211485 H 0.0 **** 0.06
765 H 85.84388123083522 64.60237826455113 56.97283815589276 H 0.0 **** 0.06
766 C 110.08697053345391 2.713319144437671 64.41748599614112 C 0.0 **** -0.24
767 H 110.11254931413843 2.1935857924402793 65.37500178981004 H 0.0 **** 0.06
768 H 111.03889966523151 2.575603820896765 63.90283652351303 H 0.0 **** 0.06
769 H 109.91502563540078 3.7761180485254453 64.5847580436029 H 0.0 **** 0.06
770 H 109.28106358285548 2.3070687660747975 63.80532977667259 H 0.0 **** 0.06
771 C 102.64593596094421 0.613030791700055 52.11330551740971 C 0.0 **** -0.24
772 H 102.74712178860788 -0.4549274962555785 51.9162695751305 H 0.0 **** 0.06
773 H 102.34226811642478 0.7634164408230504 53.14959871277201 H 0.0 **** 0.06
774 H 101.89291530326571 1.034682749399792 51.4482175405774 H 0.0 **** 0.06
775 H 103.6019551907926 1.106912901272267 51.938376187931304 H 0.0 **** 0.06
776 C 97.6360934471943 39.932657615016524 26.444335960173817 C 0.0 **** -0.24
777 H 97.61999974097 39.87834108770221 25.35653350943747 H 0.0 **** 0.06
778 H 97.50591854598514 40.96793901600654 26.75870427968107 H 0.0 **** 0.06
779 H 98.59220013007968 39.55840901670558 26.8116922061281 H 0.0 **** 0.06
780 H 96.82815493121512 39.324495715864316 26.85096356068908 H 0.0 **** 0.06
781 C 35.77844860775536 16.210261434023067 10.775160349241887 C 0.0 **** -0.24
782 H 35.328853582887994 15.610501463164297 9.984104208678175 H 0.0 **** 0.06
783 H 36.474630019710744 15.596031505665593 11.346644921082799 H 0.0 **** 0.06
784 H 34.9961941015056 16.583855555088007 11.436266921667851 H 0.0 **** 0.06
785 H 36.313306803502385 17.051175774556413 10.333351166801535 H 0.0 **** 0.06
786 C 107.34455626914689 1.966993098505199 42.35841146072761 C 0.0 **** -0.24
787 H 106.57783559143616 1.3426991727341715 41.89994005102062 H 0.0 **** 0.06
788 H 108.24161957542958 1.3716224126883674 42.53199658215516 H 0.0 **** 0.06
789 H 106.97664343213813 2.3560801882870237 43.30710786079004 H 0.0 **** 0.06
790 H 107.58246618642471 2.7972468209857624 41.69241501955253 H 0.0 **** 0.06
791 C 20.344700749946636 65.88038029430948 53.41674161836827 C 0.0 **** -0.24
792 H 21.299579238774708 65.78323765167448 52.90071942997838 H 0.0 **** 0.06
793 H 20.22671823695485 65.05742998070602 54.121114684968205 H 0.0 **** 0.06
794 H 19.533566799592297 65.85545853720652 52.68888367340724 H 0.0 **** 0.06
795 H 20.318977734450193 66.82762575599745 53.956098603989105 H 0.0 **** 0.06
796 C 29.632931795310583 108.08653067105693 15.480237781731148 C 0.0 **** -0.24
797 H 30.100058679419703 109.01094359205558 15.821158343287038 H 0.0 **** 0.06
798 H 29.165904580063227 107.58323850666604 16.3273128551468 H 0.0 **** 0.06
799 H 30.391922139079128 107.43658372400854 15.044632241616227 H 0.0 **** 0.06
800 H 28.876342698728507 108.31564196800575 14.730007492116357 H 0.0 **** 0.06
801 C 60.37744858132055 55.77449198848774 41.774822231034506 C 0.0 **** -0.24
802 H 59.48791703547299 55.638667679102355 42.390310626505084 H 0.0 **** 0.06
803 H 61.0728378651778 56.442570247555295 42.2825059035591 H 0.0 **** 0.06
804 H 60.092521607296675 56.20619341292914 40.81502428812564 H 0.0 **** 0.06
805 H 60.85566286983604 54.808918674734684 41.60981970879067 H 0.0 **** 0.06
806 C 31.156471586184182 105.70774399155833 92.04705335785928 C 0.0 **** -0.24
807 H 31.643553090314754 105.69405444130562 91.07225197589145 H 0.0 **** 0.06
808 H 30.46164189735532 104.87078669495507 92.11781176457225 H 0.0 **** 0.06
809 H 30.610558105256757 106.64366288082003 92.16736078638974 H 0.0 **** 0.06
810 H 31.909395518511246 105.62299050025136 92.83035657230386 H 0.0 **** 0.06
811 C 21.86163918729443 42.79691662299551 87.0958174495601 C 0.0 **** -0.24
812 H 22.002363255876986 43.09324050951979 88.13516456711513 H 0.0 **** 0.06
813 H 22.170983390115737 43.61142339388933 86.44083848879153 H 0.0 **** 0.06
814 H 20.809563288381185 42.57027143977479 86.92106661005467 H 0.0 **** 0.06
815 H 22.463592404965993 41.91194070289105 86.88558997516836 H 0.0 **** 0.06
816 C 78.65003361056631 104.40087421584877 44.58625283620695 C 0.0 **** -0.24
817 H 78.72340255193393 105.28121541397874 43.94855003119727 H 0.0 **** 0.06
818 H 79.49325288177158 103.73748558001813 44.3888055126521 H 0.0 **** 0.06
819 H 77.71771984601196 103.87657697389895 44.37544955064672 H 0.0 **** 0.06
820 H 78.66637440629958 104.70694581151201 45.63217716406089 H 0.0 **** 0.06
821 C 80.49597863154267 67.09525582103012 107.51654043658003 C 0.0 **** -0.24
822 H 81.13769520735363 66.21529774114464 107.47095344385525 H 0.0 **** 0.06
823 H 80.08682604702938 67.19431917603191 108.52143003599033 H 0.0 **** 0.06
824 H 79.68093552982145 66.98721105079426 106.80078095587794 H 0.0 **** 0.06
825 H 81.07873001015287 67.98320669798295 107.27202334043294 H 0.0 **** 0.06
826 C 74.07976564162801 101.91301776043574 108.17584255858907 C 0.0 **** -0.24
827 H 73.16701293869063 101.41750429101602 108.5073791108382 H 0.0 **** 0.06
828 H 73.92062462402838 102.99120424967437 108.15897291924381 H 0.0 **** 0.06
829 H 74.33688626357863 101.56759459845526 107.1743699455883 H 0.0 **** 0.06
830 H 74.89125696075553 101.67544018900502 108.86299919011412 H 0.0 **** 0.06
831 C 110.93124054177119 24.45792210614588 97.1537698627505 C 0.0 **** -0.24
832 H 110.23471064565578 25.295055153245237 97.09492265665784 H 0.0 **** 0.06
833 H 111.2449634445215 24.174745745929783 96.14943794678112 H 0.0 **** 0.06
834 H 110.439941391813 23.610892005970076 97.63362480462558 H 0.0 **** 0.06
835 H 111.80265454047311 24.751918710502906 97.73804303574872 H 0.0 **** 0.06
836 C 71.07025836290492 42.04008174454478 93.04616444563086 C 0.0 **** -0.24
837 H 72.12136032944807 41.88321916392562 92.80266624122446 H 0.0 **** 0.06
838 H 70.99215295487454 42.52400761004435 94.01999856214698 H 0.0 **** 0.06
839 H 70.55772344589201 41.07884877383084 93.07614207248042 H 0.0 **** 0.06
840 H 70.61210383732131 42.67354065833712 92.28789359800325 H 0.0 **** 0.06
841 C 27.069983983873882 44.585770140647696 30.830484671457306 C 0.0 **** -0.24
842 H 27.450725568784833 43.90050664284723 30.07398862636132 H 0.0 **** 0.06
843 H 27.187786083773545 44.13847680136388 31.81839660644151 H 0.0 **** 0.06
844 H 26.014173478047226 44.78332109481636 30.644413807377013 H 0.0 **** 0.06
845 H 27.627008075127463 45.521780254861426 30.786852196147834 H 0.0 **** 0.06
846 C 5.9983126545115635 96.1056707739522 61.58640475911881 C 0.0 **** -0.24
847 H 6.996226175418768 96.13443625616816 62.02470915549554 H 0.0 **** 0.06
848 H 5.2779222371348435 96.51236483369382 62.296815341863834 H 0.0 **** 0.06
849 H 5.735044782885478 95.07502665226073 61.35070109145329 H 0.0 **** 0.06
850 H 5.986076552573808 96.70209737421989 60.674010570296105 H 0.0 **** 0.06
851 C 77.36605816603307 3.0177409548582546 11.477123997388382 C 0.0 **** -0.24
852 H 76.41392963430681 3.5479515114130606 11.472934076352377 H 0.0 **** 0.06
853 H 77.83207555200953 3.1155292171435747 12.456959561402407 H 0.0 **** 0.06
854 H 78.02179569958395 3.4440325038477795 10.717284269787328 H 0.0 **** 0.06
855 H 77.19560255863762 1.9639624811537146 11.258662745090348 H 0.0 **** 0.06
856 C 29.654430548316924 26.719920927484907 65.2101672020989 C 0.0 **** -0.24
857 H 29.27773348090824 27.69832152266858 64.91470645039279 H 0.0 **** 0.06
858 H 30.111700370316385 26.790150084451298 66.19772823711412 H 0.0 **** 0.06
859 H 30.399521435322413 26.384334695675292 64.48796357668695 H 0.0 **** 0.06
860 H 28.830704226306693 26.00725636298565 65.24059212271416 H 0.0 **** 0.06
861 C 66.71435031002574 9.39170821014035 34.80033073075455 C 0.0 **** -0.24
862 H 67.14387426807713 9.080162542524036 33.848096499119606 H 0.0 **** 0.06
863 H 65.68293055779532 9.708529952273963 34.64763888654397 H 0.0 **** 0.06
864 H 67.29401952562597 10.22178983349555 35.20489183662559 H 0.0 **** 0.06
865 H 66.7396789334922 8.555845133356556 35.50034573174031 H 0.0 **** 0.06
866 C 97.25221018048568 42.37774394881501 74.25025431035192 C 0.0 **** -0.24
867 H 97.61189033233859 42.895258489907405 73.36165576876857 H 0.0 **** 0.06
868 H 96.22430619522838 42.050178442330775 74.08906221810315 H 0.0 **** 0.06
869 H 97.28788197153182 43.05369982105424 75.10392208530652 H 0.0 **** 0.06
870 H 97.88361160815707 41.511021057492655 74.44646143645417 H 0.0 **** 0.06
871 C 73.42595917579565 68.13841435205205 112.8442028745057 C 0.0 **** -0.24
872 H 73.60566330763925 69.04139205031765 113.42811663941359 H 0.0 **** 0.06
873 H 72.99448158707128 67.3702298758572 113.48720236715786 H 0.0 **** 0.06
874 H 74.36840767192899 67.77951894402088 112.43203615607007 H 0.0 **** 0.06
875 H 72.73493215954976 68.36261066978136 112.03142292604912 H 0.0 **** 0.06
876 C 103.24255795791183 18.01381293089962 79.45928708932831 C 0.0 **** -0.24
877 H 102.66099980310382 17.71165590773873 78.58823094400358 H 0.0 **** 0.06
878 H 102.90705228890991 17.452134344546153 80.331836651825 H 0.0 **** 0.06
879 H 103.10217438075134 19.07979631414321 79.63718989390975 H 0.0 **** 0.06
880 H 104.29843969053476 17.810926337962556 79.27994563425773 H 0.0 **** 0.06
881 C 40.9118441768604 18.94141273578431 40.392803547495305 C 0.0 **** -0.24
882 H 41.2502432174185 18.436360620780068 39.48854420546854 H 0.0 **** 0.06
883 H 41.52363272764684 19.82800234144663 40.5636054029481 H 0.0 **** 0.06
884 H 41.0067465396715 18.265855561915927 41.24300094054712 H 0.0 **** 0.06
885 H 39.86872849179147 19.23575041235426 40.276100644332246 H 0.0 **** 0.06
886 C 89.29994199457012 92.42254894951583 96.78554909446288 C 0.0 **** -0.24
887 H 89.95308525631711 93.29313080703606 96.84860212646481 H 0.0 **** 0.06
888 H 89.68985314663824 91.63008993684387 97.42583783266838 H 0.0 **** 0.06
889 H 89.26157474381934 92.07042427413741 95.75421269010036 H 0.0 **** 0.06
890 H 88.29749639629699 92.69566957224494 97.11399004831554 H 0.0 **** 0.06
891 C 82.9760975298043 25.91881898558762 68.83355590570656 C 0.0 **** -0.24
892 H 82.49039995676635 25.186591435601486 69.47816292309454 H 0.0 **** 0.06
893 H 83.88514314117575 25.48670466331248 68.41466466817783 H 0.0 **** 0.06
894 H 83.22932911631658 26.805078948541677 69.41621073557997 H 0.0 **** 0.06
895 H 82.29991321427156 26.196350643994208 68.02592083071517 H 0.0 **** 0.06
896 C 2.0484533122132085 53.11827511074392 102.65738871029211 C 0.0 **** -0.24
897 H 2.9280130652045173 52.47486889656835 102.61680911578756 H 0.0 **** 0.06
898 H 1.2303960927304267 52.58389217998325 103.14200599261169 H 0.0 **** 0.06
899 H 1.7535696655280297 53.394068472150934 101.64475045757332 H 0.0 **** 0.06
900 H 2.2829089751291995 54.018557726286076 103.22503497827353 H 0.0 **** 0.06
901 C 110.87912101579957 80.86988430172642 31.501906989942142 C 0.0 **** -0.24
902 H 110.05279355075652 81.45743483065587 31.101376253556595 H 0.0 **** 0.06
903 H 111.27092415450942 81.35709398437706 32.39531430700356 H 0.0 **** 0.06
904 H 111.66709162556377 80.79322161729772 30.7536512695103 H 0.0 **** 0.06
905 H 110.52374364040246 79.87211997892973 31.75836322903737 H 0.0 **** 0.06
906 C 67.92880548200708 32.77056077348209 14.903910965993077 C 0.0 **** -0.24
907 H 68.38584646822835 33.630873599264845 14.415653970136617 H 0.0 **** 0.06
908 H 67.78428905885733 31.973518476644642 14.173809467863919 H 0.0 **** 0.06
909 H 66.96490954451573 33.06006558120637 15.322078544076106 H 0.0 **** 0.06
910 H 68.58017685642653 32.41778543681252 15.704101881895696 H 0.0 **** 0.06
911 C 75.34626441799227 68.35777071662339 11.377906831722456 C 0.0 **** -0.24
912 H 74.79249800090491 68.78053275063381 12.216033646230471 H 0.0 **** 0.06
913 H 76.27598889444653 68.90980812082886 11.241643727714703 H 0.0 **** 0.06
914 H 74.74421961552548 68.42887283355037 10.472091677333708 H 0.0 **** 0.06
915 H 75.5712753866394 67.31083960195068 11.582743084679535 H 0.0 **** 0.06
916 C 108.96627970597594 86.35345113899669 114.1246599090066 C 0.0 **** -0.24
917 H 107.983971639778 85.88237037180592 114.08144691627353 H 0.0 **** 0.06
918 H 109.73827281664491 85.58281300943847 114.13866617061757 H 0.0 **** 0.06
919 H 109.04001019707323 86.9579917903914 115.02790677078792 H 0.0 **** 0.06
920 H 109.1026246468914 86.98867465681602 113.24916306632355 H 0.0 **** 0.06
921 C 85.29033838225008 33.92886313460565 0.7202111143887038 C 0.0 **** -0.24
922 H 85.63594355307468 32.90475372162561 0.8622200849986541 H 0.0 **** 0.06
923 H 85.98010180096803 34.45656471093349 0.060547487708461745 H 0.0 **** 0.06
924 H 85.24968169474974 34.43494312383618 1.6847273817801636 H 0.0 **** 0.06
925 H 84.29642772281342 33.91805003073648 0.2735868933850014 H 0.0 **** 0.06
926 C 96.82882415240124 39.92972132198575 108.57569190614012 C 0.0 **** -0.24
927 H 96.20169503522823 39.163418796422434 108.12149922691236 H 0.0 **** 0.06
928 H 97.54735852378921 39.45982763044495 109.24841392726874 H 0.0 **** 0.06
929 H 96.20443255625295 40.62380429456563 109.13886288759093 H 0.0 **** 0.06
930 H 97.36225652173657 40.47183739426312 107.79566526798747 H 0.0 **** 0.06
931 C 9.302507776103397 56.58852954631993 99.6965502503279 C 0.0 **** -0.24
932 H 9.123777639994898 55.57339355929164 99.34195467079395 H 0.0 **** 0.06
933 H 9.292004054327919 56.599310575286026 100.78691810280544 H 0.0 **** 0.06
934 H 8.520655270714741 57.24782333320023 99.31938328065372 H 0.0 **** 0.06
935 H 10.273023689060594 56.933108179417005 99.33914572062501 H 0.0 **** 0.06
936 C 25.1251069571191 13.469949235820025 84.89794553319713 C 0.0 **** -0.24
937 H 25.076470176333544 12.438742148129506 85.24725906181709 H 0.0 **** 0.06
938 H 25.805161525205676 13.534379770226394 84.04885836760681 H 0.0 **** 0.06
939 H 25.48706446469845 14.109158492235963 85.70314788964079 H 0.0 **** 0.06
940 H 24.130767217148616 13.797549785019157 84.5922545222591 H 0.0 **** 0.06
941 C 48.333007502301996 75.45574799941724 65.83855874096685 C 0.0 **** -0.24
942 H 49.165541329215245 75.72065637065602 66.49027304291371 H 0.0 **** 0.06
943 H 48.676897765400554 75.42241348062656 64.8043997136364 H 0.0 **** 0.06
944 H 47.544661745086955 76.20233814243942 65.93529905122847 H 0.0 **** 0.06
945 H 47.94477350498943 74.47896950681839 66.12450035658503 H 0.0 **** 0.06
946 C 0.4303321279541166 46.462133029150834 60.42806515165796 C 0.0 **** -0.24
947 H -0.6094416714180113 46.30864700348923 60.71805666681735 H 0.0 **** 0.06
948 H 1.0845324016309235 45.99698691714576 61.166036491339014 H 0.0 **** 0.06
949 H 0.6396028543594525 47.53090687291552 60.377658633365684 H 0.0 **** 0.06
950 H 0.6042172510016002 46.010333299624506 59.45114624091468 H 0.0 **** 0.06
951 C 37.07572127400202 92.4094400563452 20.203136075324608 C 0.0 **** -0.24
952 H 36.40099240380653 91.59716884987336 20.474150863056764 H 0.0 **** 0.06
953 H 37.969403569710515 92.36105834085515 20.825396249655057 H 0.0 **** 0.06
954 H 36.57471515626767 93.36484847324829 20.360858028003463 H 0.0 **** 0.06
955 H 37.35713592048792 92.31483701903863 19.155066645180455 H 0.0 **** 0.06
956 C 51.703671475433296 107.0725928265317 109.6000823532376 C 0.0 **** -0.24
957 H 51.03477413188796 107.4770094700239 110.35983236590036 H 0.0 **** 0.06
958 H 52.332257958020186 106.30114565713697 110.04448175963122 H 0.0 **** 0.06
959 H 52.33126811464114 107.87225612068566 109.20737177564905 H 0.0 **** 0.06
960 H 51.11473883078497 106.6411940855875 108.79082651873925 H 0.0 **** 0.06
961 C 106.12136058390259 54.21547664121567 108.5743033577802 C 0.0 **** -0.24
962 H 105.83828432500901 53.30717248800181 108.04173881784965 H 0.0 **** 0.06
963 H 106.11303368976253 54.024815007284985 109.64807262171757 H 0.0 **** 0.06
964 H 105.4109644013996 55.009308835723175 108.3401658914986 H 0.0 **** 0.06
965 H 107.12131212362216 54.520310991295446 108.26653159174577 H 0.0 **** 0.06
966 C 42.766390164396924 40.23352776976725 103.00471059293687 C 0.0 **** -0.24
967 H 41.68027707476885 40.32159352887231 102.97332032907389 H 0.0 **** 0.06
968 H 43.09380854559939 39.52419762714817 102.24340210672301 H 0.0 **** 0.06
969 H 43.07301954334837 39.8792571756224 103.98798279572122 H 0.0 **** 0.06
970 H 43.21587088755363 41.20730798040509 102.81233676746422 H 0.0 **** 0.06
971 C 41.088476249078525 88.67504269487645 1.4525763740338675 C 0.0 **** -0.24
972 H 40.726238565507586 89.2469690129865 2.307259204657214 H 0.0 **** 0.06
973 H 40.96967470004404 89.26634318623826 0.5439314775268258 H 0.0 **** 0.06
974 H 40.51382764586921 87.7527196911791 1.3638416456374216 H 0.0 **** 0.06
975 H 42.14127386051713 88.43550070873728 1.5966120979924767 H 0.0 **** 0.06
976 C 72.17823251354699 80.9470753287999 7.1814358478858935 C 0.0 **** -0.24
977 H 71.67263345729337 80.10415365968966 7.652693967738912 H 0.0 **** 0.06
978 H 72.65837449526303 80.61338347205148 6.261567937307973 H 0.0 **** 0.06
979 H 72.93185087854863 81.34422790126571 7.86182895253188 H 0.0 **** 0.06
980 H 71.44986556182425 81.7244424251835 6.950907048789418 H 0.0 **** 0.06
981 C 70.32203746495885 11.643728753403465 18.15423535389766 C 0.0 **** -0.24
982 H 70.81064219534957 11.77486925181423 17.188224381647345 H 0.0 **** 0.06
983 H 71.0709960958715 11.677554644252563 18.946337249091258 H 0.0 **** 0.06
984 H 69.81355134915876 10.680674779067463 18.17610716462167 H 0.0 **** 0.06
985 H 69.59577499058076 12.442074411634714 18.30616813742874 H 0.0 **** 0.06
986 C 38.149538773917754 6.438687641017957 42.287746366483375 C 0.0 **** -0.24
987 H 38.30787242234538 6.547744889743921 43.35998022331233 H 0.0 **** 0.06
988 H 37.73178771911853 7.362118066919367 41.88633650854796 H 0.0 **** 0.06
989 H 37.4580250258025 5.616724414183194 42.10333452274916 H 0.0 **** 0.06
990 H 39.101892251568586 6.228584126000117 41.79938481306082 H 0.0 **** 0.06
991 C 94.77577898169284 29.289115464595973 15.593174520255104 C 0.0 **** -0.24
992 H 94.15019281180429 28.971407889043412 14.759814862203143 H 0.0 **** 0.06
993 H 94.14920694233382 29.494007835255445 16.461124483762944 H 0.0 **** 0.06
994 H 95.31923261938027 30.192810252817402 15.315276172169774 H 0.0 **** 0.06
995 H 95.4866054735669 28.498906947773875 15.836700297208097 H 0.0 **** 0.06
996 C 41.13517248296654 52.193768794976684 62.09725106665002 C 0.0 **** -0.24
997 H 40.2272445968336 51.645379071835144 61.847034770584685 H 0.0 **** 0.06
998 H 40.869559149468216 53.17819056747004 62.48393432876696 H 0.0 **** 0.06
999 H 41.74830268305567 52.307748435925674 61.203069555538264 H 0.0 **** 0.06
1000 H 41.69481853639536 51.64463002249675 62.85415755537076 H 0.0 **** 0.06
1001 C 31.673256619856723 15.808208980405709 24.35744437887908 C 0.0 **** -0.24
1002 H 31.513424853693706 15.294517606630421 25.305455209955454 H 0.0 **** 0.06
1003 H 32.04266980195319 15.097843137723203 23.61716343127887 H 0.0 **** 0.06
1004 H 32.40641539754493 16.603155372091834 24.49479796627068 H 0.0 **** 0.06
1005 H 30.73267195897727 16.236282385828815 24.012887957217686 H 0.0 **** 0.06
1006 C 99.60342259175076 99.38121137217782 26.644692680766582 C 0.0 **** -0.24
1007 H 100.55185302799725 99.67630575971971 26.195609643824753 H 0.0 **** 0.06
1008 H 98.80920800336492 99.46391775737878 25.90272610657138 H 0.0 **** 0.06
1009 H 99.38275432693888 100.03522603638301 27.488590137750492 H 0.0 **** 0.06
1010 H 99.67128308650945 98.3502714272171 26.990726327826508 H 0.0 **** 0.06
1011 C 40.3896318174298 36.577040275917795 44.257198083254224 C 0.0 **** -0.24
1012 H 40.69305383038255 36.72878483735312 45.29272702296072 H 0.0 **** 0.06
1013 H 40.753533067052274 35.61041883162818 43.91029267470276 H 0.0 **** 0.06
1014 H 40.80936339069751 37.368339140964565 43.63576338044825 H 0.0 **** 0.06
1015 H 39.301639984559245 36.60096152434545 44.1899437860306 H 0.0 **** 0.06
1016 C 30.7034637888771 4.361612970263664 2.3507231158856285 C 0.0 **** -0.24
1017 H 31.734758086975575 4.066318370837621 2.541829573405579 H 0.0 **** 0.06
1018 H 30.598999308738442 5.437116234710686 2.498108750173216 H 0.0 **** 0.06
1019 H 30.04204168379347 3.8349082616753947 3.038137448775771 H 0.0 **** 0.06
1020 H 30.43717488843808 4.107754853171343 1.324503425217344 H 0.0 **** 0.06
1021 C 1.6103440295419773 108.72722988244348 51.520674073385635 C 0.0 **** -0.24
1022 H 1.6821890644101813 108.71003210093227 52.60879913943552 H 0.0 **** 0.06
1023 H 1.6846325836658025 109.75578143610291 51.168203589696134 H 0.0 **** 0.06
1024 H 0.6539546586932943 108.305011056622 51.21361847726024 H 0.0 **** 0.06
1025 H 2.422014894304425 108.1364011482955 51.0947451630918 H 0.0 **** 0.06
1026 C 71.79894880820643 59.50639308356415 45.69509626000695 C 0.0 **** -0.24
1027 H 71.81487509208921 59.268261160817886 46.759211931922664 H 0.0 **** 0.06
1028 H 72.04335295851655 58.61307216797353 45.11993025451022 H 0.0 **** 0.06
1029 H 72.53248617739695 60.28509588741812 45.48740081854811 H 0.0 **** 0.06
1030 H 70.80635074364682 59.85892006294873 45.41689795311254 H 0.0 **** 0.06
1031 C 78.04895282128666 58.34128319340624 18.842439157788263 C 0.0 **** -0.24
1032 H 78.22160895658992 57.40458355710717 19.372545950474816 H 0.0 **** 0.06
1033 H 78.61595585670621 59.139245102771326 19.32136073244456 H 0.0 **** 0.06
1034 H 76.98590157160282 58.58278142790664 18.87140917687171 H 0.0 **** 0.06
1035 H 78.36991083943366 58.23671357455413 17.80663240554182 H 0.0 **** 0.06
1036 C 8.297847977407912 93.05521192556706 30.516405110663243 C 0.0 **** -0.24
1037 H 7.265594422787444 93.13732041914687 30.859461162857485 H 0.0 **** 0.06
1038 H 8.965881442860223 93.4623737785408 31.276015618064037 H 0.0 **** 0.06
1039 H 8.417900320014837 93.61387000457417 29.58884051946802 H 0.0 **** 0.06
1040 H 8.539658849282603 92.00691521228275 30.343607514487587 H 0.0 **** 0.06
1041 C 84.89470808075595 4.940837685142981 20.928685211945805 C 0.0 **** -0.24
1042 H 84.5477345872091 5.731790966579808 20.26426755842992 H 0.0 **** 0.06
1043 H 84.35568849213041 4.018669158532589 20.709042987000995 H 0.0 **** 0.06
1044 H 84.71394646172428 5.230408936531205 21.96346404608581 H 0.0 **** 0.06
1045 H 85.96249616108429 4.781981029635631 20.77714067065875 H 0.0 **** 0.06
1046 C 96.40436870408678 50.926697737635706 67.22689942092408 C 0.0 **** -0.24
1047 H 95.55403168200269 50.77311024951504 67.89112255541679 H 0.0 **** 0.06
1048 H 96.07279550415899 50.854761308535956 66.19045405939106 H 0.0 **** 0.06
1049 H 97.15947993122415 50.165287753639205 67.42108335194493 H 0.0 **** 0.06
1050 H 96.83051373227659 51.91438570812704 67.40499906812364 H 0.0 **** 0.06
1051 C 90.5250560593467 3.7175658288891498 46.853901945484154 C 0.0 **** -0.24
1052 H 89.45778789518153 3.693270702329073 46.63394976290282 H 0.0 **** 0.06
1053 H 91.06503238855396 3.1473262096003793 46.09761038134448 H 0.0 **** 0.06
1054 H 90.70350008191011 3.280771855409114 47.83577374471471 H 0.0 **** 0.06
1055 H 90.87309193664572 4.750484971453972 46.8473730362829 H 0.0 **** 0.06
1056 C 102.56628362849895 111.44753423023334 22.12211290840466 C 0.0 **** -0.24
1057 H 103.03602828107861 111.30255837317966 23.095697829420146 H 0.0 **** 0.06
1058 H 101.7756497951533 110.70935896803147 21.98722783349504 H 0.0 **** 0.06
1059 H 103.31302614246852 111.32878347918185 21.33762684950142 H 0.0 **** 0.06
1060 H 102.14053076218573 112.44992316989803 22.070079248298157 H 0.0 **** 0.06
1061 C 113.54648394683683 73.58420170928798 82.75656636823874 C 0.0 **** -0.24
1062 H 113.13168301069044 72.58112785541175 82.6538404265226 H 0.0 **** 0.06
1063 H 113.93273070705467 73.9176849121111 81.79284389374999 H 0.0 **** 0.06
1064 H 114.35491307656265 73.56886382479183 83.48684274635804 H 0.0 **** 0.06
1065 H 112.76593798166166 74.26747473007612 83.09106229302887 H 0.0 **** 0.06
1066 C 106.30841284721276 111.83302838876091 20.493422351500083 C 0.0 **** -0.24
1067 H 107.29201578132353 111.38167637242775 20.367326665138858 H 0.0 **** 0.06
1068 H 106.35705781257117 112.88928669836464 20.226874679714108 H 0.0 **** 0.06
1069 H 105.9934110595325 111.73426360066063 21.53178880530111 H 0.0 **** 0.06
1070 H 105.59065727433526 111.3277857576285 19.84673354958266 H 0.0 **** 0.06
1071 C 5.404489744321097 10.789275120344769 2.675505185960196 C 0.0 **** -0.24
1072 H 6.313230559827076 11.091089516929856 2.1535867799813566 H 0.0 **** 0.06
1073 H 5.658074374719462 10.461310667710848 3.683691041173251 H 0.0 **** 0.06
1074 H 4.930629739942134 9.970036246046448 2.133896498555707 H 0.0 **** 0.06
1075 H 4.718635006086203 11.634517590194548 2.728805982233432 H 0.0 **** 0.06
1076 C 34.188043733189204 41.068620303957914 105.3513869185769 C 0.0 **** -0.24
1077 H 33.145852182419404 41.233685587375874 105.08012557830034 H 0.0 **** 0.06
1078 H 34.80039875512246 41.873114291524786 104.94557632825655 H 0.0 **** 0.06
1079 H 34.52267049548547 40.11428813776217 104.943887668022 H 0.0 **** 0.06
1080 H 34.28182666653932 41.051906314942556 106.43789556643605 H 0.0 **** 0.06
1081 C 27.5150535011241 62.84628180303815 87.9384598032841 C 0.0 **** -0.24
1082 H 28.20408358301063 63.481143932424516 87.38218277791401 H 0.0 **** 0.06
1083 H 27.71752629295139 61.80020974437332 87.7061956569483 H 0.0 **** 0.06
1084 H 26.49020049768211 63.08925181395114 87.65937486891397 H 0.0 **** 0.06
1085 H 27.649911491029968 63.01369505562889 89.00751533780948 H 0.0 **** 0.06
1086 C 66.74953353807696 115.20282346907493 112.68412818783503 C 0.0 **** -0.24
1087 H 67.01125865663066 114.71166961071765 113.62101791949937 H 0.0 **** 0.06
1088 H 66.03017036668012 114.58919462054678 112.14174287840967 H 0.0 **** 0.06
1089 H 67.64725007801077 115.33160481432077 112.07888941473044 H 0.0 **** 0.06
1090 H 66.31064246033291 116.17818142428513 112.89528230164979 H 0.0 **** 0.06
1091 C 115.42060555295487 56.3632005382845 66.55969190298549 C 0.0 **** -0.24
1092 H 114.33624626149536 56.26549800774234 66.61085527630269 H 0.0 **** 0.06
1093 H 115.67889790674981 57.34570941393676 66.16397489123244 H 0.0 **** 0.06
1094 H 115.82386015605138 55.58949199406595 65.90563271552747 H 0.0 **** 0.06
1095 H 115.84282643845751 56.24974533643771 67.55799945865363 H 0.0 **** 0.06
1096 C 55.86268257076955 12.823377457708176 19.02218295171084 C 0.0 **** -0.24
1097 H 55.54763704648775 12.910419689094368 17.982041828099053 H 0.0 **** 0.06
1098 H 56.01635844722813 11.7720382962504 19.26824254770917 H 0.0 **** 0.06
1099 H 55.09142232930691 13.240407606802279 19.670260174140687 H 0.0 **** 0.06
1100 H 56.793873421119486 13.370405538948233 19.167253254772618 H 0.0 **** 0.06
1101 C 45.150452517262295 9.740083033776067 42.97893987849406 C 0.0 **** -0.24
1102 H 45.3996752062194 10.799696984257999 43.0311208496432 H 0.0 **** 0.06
1103 H 45.07371236675482 9.33492985457963 43.987829561812134 H 0.0 **** 0.06
1104 H 45.93087082198821 9.211069346079682 42.4323977352191 H 0.0 **** 0.06
1105 H 44.19784635409678 9.616697282709346 42.46359628679434 H 0.0 **** 0.06
1106 C 33.39265025020206 34.696367123811086 88.55578737214945 C 0.0 **** -0.24
1107 H 32.52616377844481 34.284869140382966 89.07363693439248 H 0.0 **** 0.06
1108 H 33.1828195924401 34.75827226528196 87.48801754842553 H 0.0 **** 0.06
1109 H 34.25491160484419 34.04955496086248 88.72004624802616 H 0.0 **** 0.06
1110 H 33.60793793427646 35.693198118933054 88.94258941662083 H 0.0 **** 0.06
1111 C 40.07384400328527 84.70343063488212 109.63882285356627 C 0.0 **** -0.24
1112 H 41.097704831981 85.03012278096355 109.45432934818058 H 0.0 **** 0.06
1113 H 39.37981595462194 85.46539930844 109.2812847770557 H 0.0 **** 0.06
1114 H 39.928540912409545 84.552582235601 110.70822282140219 H 0.0 **** 0.06
1115 H 39.88936630289112 83.76784505372541 109.1112575700663 H 0.0 **** 0.06
1116 C 15.97636167980275 27.6212973498275 35.80310836202224 C 0.0 **** -0.24
1117 H 15.051880558118896 28.063094701133593 35.43208507921497 H 0.0 **** 0.06
1118 H 15.743352600877856 26.880014920593453 36.568484588567344 H 0.0 **** 0.06
1119 H 16.60588958019963 28.401483943620633 36.23175867606244 H 0.0 **** 0.06
1120 H 16.504684257915983 27.139295084528158 34.979682772068884 H 0.0 **** 0.06
1121 C 23.01367141281412 90.64132927919594 99.18628229454566 C 0.0 **** -0.24
1122 H 23.677636334138356 89.87251584186426 99.58196153046714 H 0.0 **** 0.06
1123 H 22.3816858151624 91.02257883045505 99.98870896972153 H 0.0 **** 0.06
1124 H 22.388239609553267 90.21370688166486 98.40301499254909 H 0.0 **** 0.06
1125 H 23.60765109130378 91.45655763943198 98.77383546972631 H 0.0 **** 0.06
1126 C 107.75655708590517 75.5793015700985 100.76433790539026 C 0.0 **** -0.24
1127 H 108.06890186045516 76.61631637745299 100.64055747320522 H 0.0 **** 0.06
1128 H 108.31902117440335 74.94648504050079 100.07617653395452 H 0.0 **** 0.06
1129 H 106.69122818697686 75.49200459667549 100.55034925374267 H 0.0 **** 0.06
1130 H 107.9491724192391 75.26254545935012 101.78900780975768 H 0.0 **** 0.06
1131 C 76.6461323111071 76.52496315698471 66.4433911366275 C 0.0 **** -0.24
1132 H 75.94878560134111 76.88002994110491 65.68558600613915 H 0.0 **** 0.06
1133 H 76.10047541383675 75.97308299460394 67.2095976779188 H 0.0 **** 0.06
1134 H 77.15189550606095 77.37700564203988 66.89959706648108 H 0.0 **** 0.06
1135 H 77.3844046200467 75.87070844471168 65.97977672838516 H 0.0 **** 0.06
1136 C 5.470679636932571 80.48298047855099 41.670051310600506 C 0.0 **** -0.24
1137 H 5.323958282916326 81.49090156458777 42.05820267568587 H 0.0 **** 0.06
1138 H 6.537441021557187 80.28654692401045 41.56394501838362 H 0.0 **** 0.06
1139 H 4.9855542214306645 80.39407730643006 40.69732926020794 H 0.0 **** 0.06
1140 H 5.03419846183996 79.76093498416895 42.35960768927745 H 0.0 **** 0.06
1141 C 11.715591832887753 16.383020015295244 92.96680271173081 C 0.0 **** -0.24
1142 H 12.181056191932498 16.169463698116658 92.0045604407713 H 0.0 **** 0.06
1143 H 10.837339649730552 17.010459053068843 92.81351887848632 H 0.0 **** 0.06
1144 H 12.427777978959966 16.90388233598128 93.6072478093022 H 0.0 **** 0.06
1145 H 11.416955616837015 15.448134634653599 93.44070066588307 H 0.0 **** 0.06
1146 C 35.70044122624864 56.108593303419894 80.07226134040951 C 0.0 **** -0.24
1147 H 35.470913252440084 56.788615058715095 79.25101475229621 H 0.0 **** 0.06
1148 H 36.143690330337904 56.66975186545426 80.89488206253023 H 0.0 **** 0.06
1149 H 36.40201511603277 55.3490640468888 79.7291332779032 H 0.0 **** 0.06
1150 H 34.7828598896981 55.62828778173622 80.41157333921535 H 0.0 **** 0.06
1151 C 82.18097449309866 42.94156771811333 28.786847345477412 C 0.0 **** -0.24
1152 H 82.13944721726159 43.94434526577311 29.212646896047374 H 0.0 **** 0.06
1153 H 82.69845136950966 42.97599725903916 27.827726452439265 H 0.0 **** 0.06
1154 H 81.16841381081912 42.56576334671769 28.64170099413724 H 0.0 **** 0.06
1155 H 82.71916791249481 42.2806663737415 29.46681341074884 H 0.0 **** 0.06
1156 C 94.7927779498543 82.61549858045346 52.304122466483314 C 0.0 **** -0.24
1157 H 93.80688203782483 82.9745891519278 52.600753235466556 H 0.0 **** 0.06
1158 H 94.92283848958677 82.75402954068693 51.2304861114081 H 0.0 **** 0.06
1159 H 94.88198202937767 81.55649476451161 52.547899307034136 H 0.0 **** 0.06
1160 H 95.56010741251396 83.17682925617497 52.83806532142343 H 0.0 **** 0.06
1161 C 40.3332859715604 44.136660572114096 93.43333091136279 C 0.0 **** -0.24
1162 H 41.17678680227209 44.58493230180589 93.95877965654603 H 0.0 **** 0.06
1163 H 39.529821386058956 44.867789744486345 93.344937830069 H 0.0 **** 0.06
1164 H 39.976953589944145 43.270206510806204 93.98975620135951 H 0.0 **** 0.06
1165 H 40.65113421529003 43.82309633481806 92.4380582751553 H 0.0 **** 0.06
1166 C 98.30456053411265 62.898382571653855 66.86271396748555 C 0.0 **** -0.24
1167 H 98.48823679128738 62.26881792136459 65.99178115332222 H 0.0 **** 0.06
1168 H 97.82489891367486 62.308585639455586 67.64293302759029 H 0.0 **** 0.06
1169 H 97.65491543497929 63.72625834587454 66.58044734835823 H 0.0 **** 0.06
1170 H 99.2517606588186 63.28960090797065 67.23245932008507 H 0.0 **** 0.06
1171 C 101.190301376852 112.79137362118014 75.73817480541692 C 0.0 **** -0.24
1172 H 102.27625549716817 112.69193872815143 75.72129338301345 H 0.0 **** 0.06
1173 H 100.91850896389772 113.70743530508564 76.26122771443337 H 0.0 **** 0.06
1174 H 100.75621391851703 111.93522766215088 76.25502561084727 H 0.0 **** 0.06
1175 H 100.81305720561951 112.82874418665239 74.71632510122495 H 0.0 **** 0.06
1176 C 8.916118155938435 32.64195650309529 38.74782312593976 C 0.0 **** -0.24
1177 H 9.392214924438463 31.66516911187162 38.83734883712805 H 0.0 **** 0.06
1178 H 9.402082511217259 33.21193830741966 37.95558643461675 H 0.0 **** 0.06
1179 H 9.009554001973157 33.178678074489056 39.69103686512369 H 0.0 **** 0.06
1180 H 7.861218945699491 32.51124788262936 38.507200081522456 H 0.0 **** 0.06
1181 C 62.255727645876846 94.55671294701261 40.56674225577095 C 0.0 **** -0.24
1182 H 62.91948400904596 94.3692797028491 41.41166645867128 H 0.0 **** 0.06
1183 H 62.8440686949715 94.63118155757522 39.65293991837825 H 0.0 **** 0.06
1184 H 61.71584492496618 95.48941153945879 40.72955664829357 H 0.0 **** 0.06
1185 H 61.54396095216339 93.73623624402342 40.47567795543739 H 0.0 **** 0.06
1186 C 103.55578973690908 66.02350917526309 111.08906860177414 C 0.0 **** -0.24
1187 H 103.79048818560274 65.29950396258647 111.86911194890602 H 0.0 **** 0.06
1188 H 102.73268538006998 65.64724500201476 110.48113268771729 H 0.0 **** 0.06
1189 H 104.43304421497304 66.1760765959178 110.46058288002142 H 0.0 **** 0.06
1190 H 103.26723994040725 66.96954427892763 111.5477124503671 H 0.0 **** 0.06
1191 C 6.165628077014716 31.173184598990787 50.535131525330456 C 0.0 **** -0.24
1192 H 7.04319764403094 30.590967280099647 50.81707696502714 H 0.0 **** 0.06
1193 H 6.354515437045592 31.677239747104068 49.58719769859783 H 0.0 **** 0.06
1194 H 5.9583273633600555 31.91401728568323 51.30662801699802 H 0.0 **** 0.06
1195 H 5.308649263605673 30.508713041195165 50.42949839129221 H 0.0 **** 0.06
1196 C 103.69102862185144 40.84760717604547 62.16485548348808 C 0.0 **** -0.24
1197 H 104.77982678969238 40.85158867463571 62.2168291014638 H 0.0 **** 0.06
1198 H 103.34007968778661 41.815488678528936 61.807412095629275 H 0.0 **** 0.06
1199 H 103.28138569619159 40.655426174500974 63.15674646432667 H 0.0 **** 0.06
1200 H 103.36365426375318 40.06638591349491 61.47940316673038 H 0.0 **** 0.06
1201 C 8.594429525652004 71.53524260755667 37.397357453074505 C 0.0 **** -0.24
1202 H 9.258027560528802 71.00296498289111 36.71487462547623 H 0.0 **** 0.06
1203 H 8.697886627324976 71.11950419360392 38.399743988202374 H 0.0 **** 0.06
1204 H 7.563572288847951 71.42332875545145 37.0624228928113 H 0.0 **** 0.06
1205 H 8.859986479782563 72.5920258589683 37.412529331055794 H 0.0 **** 0.06
1206 C 72.5041824027202 81.03576774231841 113.90906961912884 C 0.0 **** -0.24
1207 H 73.44398893438058 80.95143787266623 114.45523968547144 H 0.0 **** 0.06
1208 H 72.46624637336001 81.99848259320727 113.39941824607341 H 0.0 **** 0.06
1209 H 71.67098201143389 80.96113912667195 114.60727387658898 H 0.0 **** 0.06
1210 H 72.43702197045585 80.23251942109471 113.17591607760305 H 0.0 **** 0.06
1211 C 20.375395078776105 97.4437957908237 10.299899215290353 C 0.0 **** -0.24
1212 H 19.39864684791374 97.04514576274617 10.026530271792225 H 0.0 **** 0.06
1213 H 20.807330922573374 97.96425574990201 9.443988284409343 H 0.0 **** 0.06
1214 H 21.031651830485874 96.62552873030131 10.59659376642513 H 0.0 **** 0.06
1215 H 20.26482847359969 98.14056967352045 11.130715518130785 H 0.0 **** 0.06
1216 C 39.07232004128508 69.28697049942423 6.6275255112956195 C 0.0 **** -0.24
1217 H 39.71524243200946 68.48392077037603 6.988156204827334 H 0.0 **** 0.06
1218 H 39.64798287809617 70.2103652418 6.562134268361939 H 0.0 **** 0.06
1219 H 38.24026002393303 69.42412644476688 7.317581946269998 H 0.0 **** 0.06
1220 H 38.68719977978097 69.02737600685951 5.640603665453078 H 0.0 **** 0.06
1221 C 96.88461709462877 67.62883093555301 78.44189170804792 C 0.0 **** -0.24
1222 H 96.52216675322813 67.41865006459979 77.4353976282896 H 0.0 **** 0.06
1223 H 97.76475388061885 67.01965534083776 78.64466452625852 H 0.0 **** 0.06
1224 H 96.10375532832995 67.39362742726534 79.16472691382242 H 0.0 **** 0.06
1225 H 97.1469496804857 68.68458170439021 78.51979910148437 H 0.0 **** 0.06
1226 C 88.56950533218816 71.97215485771694 6.525360384085786 C 0.0 **** -0.24
1227 H 89.27259669579189 72.8051434526202 6.501905607110089 H 0.0 **** 0.06
1228 H 88.09207411753891 71.87196108497217 5.550569533360175 H 0.0 **** 0.06
1229 H 87.81138902952335 72.15951063476916 7.285616935006516 H 0.0 **** 0.06
1230 H 89.10474313490914 71.05221351268288 6.764839162209142 H 0.0 **** 0.06
1231 C 106.2926569727757 40.12164430096436 96.95325132202646 C 0.0 **** -0.24
1232 H 106.41121910573693 40.30901983321695 98.02040593969876 H 0.0 **** 0.06
1233 H 107.12765012656389 40.56692592468721 96.41198587603996 H 0.0 **** 0.06
1234 H 105.35838045927885 40.56517589027641 96.60912536428013 H 0.0 **** 0.06
1235 H 106.27332237308525 39.04661085150286 96.77340186336751 H 0.0 **** 0.06
1236 C 56.03977152848216 82.14115816724119 56.38971756642171 C 0.0 **** -0.24
1237 H 56.55611837989025 81.28291821247457 56.82083555170486 H 0.0 **** 0.06
1238 H 56.67518071737305 83.02356660743496 56.46694499517997 H 0.0 **** 0.06
1239 H 55.10921814291686 82.31498622533226 56.9298015801087 H 0.0 **** 0.06
1240 H 55.819488442997624 81.9421593480894 55.340900905333804 H 0.0 **** 0.06
1241 C 86.88494239344749 6.83733855493746 99.71651142399276 C 0.0 **** -0.24
1242 H 86.86122022033646 6.814832302808867 100.80617618911756 H 0.0 **** 0.06
1243 H 86.08765563023803 6.205004493112966 99.32371236299487 H 0.0 **** 0.06
1244 H 87.84835489932209 6.467203790190808 99.36617281336704 H 0.0 **** 0.06
1245 H 86.74117572284689 7.860841253361286 99.3709714151742 H 0.0 **** 0.06
1246 C 19.7723242674752 74.36029856084264 9.166027452944363 C 0.0 **** -0.24
1247 H 18.992797931361313 74.36140611309678 8.403795171751483 H 0.0 **** 0.06
1248 H 20.191956906293697 73.358291907873 9.255081741956658 H 0.0 **** 0.06
1249 H 19.345625106791715 74.66321270332027 10.122391098764648 H 0.0 **** 0.06
1250 H 20.558013464923885 75.06000686959061 8.881740098358478 H 0.0 **** 0.06
1251 C 39.9440017801534 84.69857754382679 44.24212302722265 C 0.0 **** -0.24
1252 H 39.117305623238394 85.28205762766993 43.83640264105293 H 0.0 **** 0.06
1253 H 40.75995427401463 84.67267061153564 43.519165925859625 H 0.0 **** 0.06
1254 H 39.606113659582235 83.68247084709725 44.4461214628227 H 0.0 **** 0.06
1255 H 40.292228131097346 85.1577157045516 45.16801458816781 H 0.0 **** 0.06
1256 C 38.37803532512672 75.86631256597163 51.780588128052905 C 0.0 **** -0.24
1257 H 38.26756888841305 74.78522344068355 51.69608355190011 H 0.0 **** 0.06
1258 H 38.764557632130334 76.2660853661616 50.84275402470898 H 0.0 **** 0.06
1259 H 39.07098018685687 76.09833663399456 52.588552069881914 H 0.0 **** 0.06
1260 H 37.40685062117757 76.31456614402322 51.994573309983316 H 0.0 **** 0.06
1261 C 45.14931959902587 78.565637474845 24.788876376084943 C 0.0 **** -0.24
1262 H 44.998684986383 79.37510486710973 25.50366889936727 H 0.0 **** 0.06
1263 H 45.00802138941313 77.60743331087724 25.29031154934414 H 0.0 **** 0.06
1264 H 46.161539430965334 78.62002494510764 24.386829574342784 H 0.0 **** 0.06
1265 H 44.42980929164548 78.6600538894017 23.975321808854517 H 0.0 **** 0.06
1266 C 4.627677642633728 94.78570088296613 95.49197625020963 C 0.0 **** -0.24
1267 H 3.693685384297055 95.33181029365664 95.3556069429844 H 0.0 **** 0.06
1268 H 5.435288447396658 95.31785075552497 94.98994455952604 H 0.0 **** 0.06
1269 H 4.529299643565253 93.78641295943444 95.06625915144275 H 0.0 **** 0.06
1270 H 4.849452103195688 94.70647795848063 96.55625881331827 H 0.0 **** 0.06
1271 C 39.1580909991605 71.66718461953076 114.01974891721586 C 0.0 **** -0.24
1272 H 39.62420829511281 72.60084428828318 114.33387280726973 H 0.0 **** 0.06
1273 H 38.5797454612939 71.83909306038925 113.1118538281801 H 0.0 **** 0.06
1274 H 38.49768575219838 71.30667713688945 114.80879128122359 H 0.0 **** 0.06
1275 H 39.93044465206558 70.92345276878962 113.82408258224262 H 0.0 **** 0.06
1276 C 7.972445509054978 114.92697675753976 30.11298402720061 C 0.0 **** -0.24
1277 H 7.3829882878152375 114.3038709781907 29.441844090115517 H 0.0 **** 0.06
1278 H 7.740395570132762 114.66893597652292 31.146563908193905 H 0.0 **** 0.06
1279 H 7.734326799426697 115.97678931707512 29.93867772809579 H 0.0 **** 0.06
1280 H 9.033156866230797 114.75976306998518 29.926159119352533 H 0.0 **** 0.06
1281 C 71.74790924387719 69.8677151000324 47.13511514288837 C 0.0 **** -0.24
1282 H 72.19152717360424 69.21176795601127 46.38610911543756 H 0.0 **** 0.06
1283 H 71.6002294140169 70.85939812462033 46.70699363539461 H 0.0 **** 0.06
1284 H 72.41391624810473 69.93865969342488 47.99549304331288 H 0.0 **** 0.06
1285 H 70.78795173889085 69.46129625636434 47.45087417976629 H 0.0 **** 0.06
1286 C 18.567654868423222 101.98573933881083 94.74533850096762 C 0.0 **** -0.24
1287 H 19.37874062230435 102.09583257854315 95.46527456974337 H 0.0 **** 0.06
1288 H 18.793554066287175 101.16217289424394 94.0667712520202 H 0.0 **** 0.06
1289 H 18.45989648354308 102.90807529121741 94.17555432156877 H 0.0 **** 0.06
1290 H 17.638373994849374 101.77531767259016 95.27564255442559 H 0.0 **** 0.06
1291 C 99.28966475234708 3.593307516869885 54.74679329352432 C 0.0 **** -0.24
1292 H 100.01060620450693 4.322699433438345 54.376671089256234 H 0.0 **** 0.06
1293 H 99.13658787720601 2.8198011707670503 53.9931010132853 H 0.0 **** 0.06
1294 H 98.34270509137383 4.09111736110998 54.955228672825 H 0.0 **** 0.06
1295 H 99.6708941711114 3.138880453442198 55.66121864496856 H 0.0 **** 0.06
1296 C 72.75395034704329 40.772488966385595 7.131009061127635 C 0.0 **** -0.24
1297 H 73.57908375951243 41.403675366015676 6.800312579357298 H 0.0 **** 0.06
1298 H 71.80797570584409 41.243809086091005 6.865551264822571 H 0.0 **** 0.06
1299 H 72.80568935552621 40.6428001247958 8.212031463148499 H 0.0 **** 0.06
1300 H 72.82496618182552 39.79922868920892 6.645072073549736 H 0.0 **** 0.06
1301 C 17.84918759780819 104.90715123349847 64.40563097332108 C 0.0 **** -0.24
1302 H 17.538839647567364 103.96200082794579 64.85096164351111 H 0.0 **** 0.06
1303 H 17.58904592412008 104.91117319084456 63.346888456303844 H 0.0 **** 0.06
1304 H 18.92642084690821 105.02484099092452 64.51708555002695 H 0.0 **** 0.06
1305 H 17.33947191726277 105.72913514386184 64.9090204585088 H 0.0 **** 0.06
1306 C 71.99689955269146 56.83616728609417 67.42389593569936 C 0.0 **** -0.24
1307 H 72.28378502484779 57.69319517084804 68.0326951200624 H 0.0 **** 0.06
1308 H 71.55246495117869 57.18456284037731 66.4916256032772 H 0.0 **** 0.06
1309 H 71.27103143979383 56.23091078350626 67.9689167848341 H 0.0 **** 0.06
1310 H 72.87903784719661 56.235321361070476 67.20432198975628 H 0.0 **** 0.06
1311 C 101.01942281465003 8.340943913978066 102.41580340108553 C 0.0 **** -0.24
1312 H 102.01086340976961 8.184512753513246 102.84070737246756 H 0.0 **** 0.06
1313 H 100.88904404316199 9.396103625353618 102.17464798002457 H 0.0 **** 0.06
1314 H 100.26237760290073 8.037964645562965 103.14001520573149 H 0.0 **** 0.06
1315 H 100.9140108077417 7.7455578487029015 101.50955220681345 H 0.0 **** 0.06
1316 C 63.60813617781338 33.06898692196785 59.6290583032044 C 0.0 **** -0.24
1317 H 63.91138680508578 34.08169063364119 59.360545937892994 H 0.0 **** 0.06
1318 H 64.4512714270517 32.390804191200914 59.4937817475261 H 0.0 **** 0.06
1319 H 62.782715443101154 32.75572747100182 58.98942347881626 H 0.0 **** 0.06
1320 H 63.28900776102671 33.05039687744926 60.67126127455825 H 0.0 **** 0.06
1321 C 37.61556291929128 80.15954041829532 53.00664796473359 C 0.0 **** -0.24
1322 H 38.6123234193131 80.5312195467432 52.77034169748674 H 0.0 **** 0.06
1323 H 36.99312812652249 80.98473708886668 53.35477871772366 H 0.0 **** 0.06
1324 H 37.686073603932016 79.40238118365976 53.78899495773885 H 0.0 **** 0.06
1325 H 37.171440654888215 79.71943722815068 52.11478752116892 H 0.0 **** 0.06
1326 C 67.19725317160697 115.78962362587919 71.6642511353894 C 0.0 **** -0.24
1327 H 67.97399551471779 115.22233577427234 72.17669270219079 H 0.0 **** 0.06
1328 H 67.65292542594682 116.4172054932146 70.89752796365053 H 0.0 **** 0.06
1329 H 66.67198949378678 116.41774712296376 72.38410078982241 H 0.0 **** 0.06
1330 H 66.4925082749289 115.10108201588773 71.19912579868378 H 0.0 **** 0.06
1331 C 74.75572499867765 107.16499855899565 11.029050398700278 C 0.0 **** -0.24
1332 H 75.31260312220755 106.87966188515031 10.137184250108632 H 0.0 **** 0.06
1333 H 73.72607208923728 106.81803477694864 10.939811401556113 H 0.0 **** 0.06
1334 H 74.76642909143041 108.24898219044739 11.133421588896312 H 0.0 **** 0.06
1335 H 75.21748306342006 106.71112599288116 11.906114682533612 H 0.0 **** 0.06
1336 C 4.2237691312260495 20.648512437997297 69.59780582673014 C 0.0 **** -0.24
1337 H 3.5097388408429424 21.2085999499904 70.20014806998141 H 0.0 **** 0.06
1338 H 4.171056694930996 19.592109110182122 69.86144757588198 H 0.0 **** 0.06
1339 H 5.230631192562498 21.020380900387536 69.78764573273406 H 0.0 **** 0.06
1340 H 3.9842905180976516 20.77169961969085 68.54194247158274 H 0.0 **** 0.06
1341 C 26.44736183055562 43.259048848876866 79.95770821341132 C 0.0 **** -0.24
1342 H 26.24451523828037 44.30919442992905 80.1705065619844 H 0.0 **** 0.06
1343 H 25.702306580325626 42.63757196257563 80.45374013519687 H 0.0 **** 0.06
1344 H 27.441459942441156 43.000024513726956 80.32481719599042 H 0.0 **** 0.06
1345 H 26.40244169495344 43.09118110663897 78.88130485096475 H 0.0 **** 0.06
1346 C 49.09863321221732 7.09650751298696 103.81615060360838 C 0.0 **** -0.24
1347 H 48.26708334749955 6.637764742209768 104.35107998680166 H 0.0 **** 0.06
1348 H 49.1600614487387 8.153494098054296 104.0772244334728 H 0.0 **** 0.06
1349 H 48.93883050784055 6.99626853718415 102.74277658883659 H 0.0 **** 0.06
1350 H 50.02826194033369 6.599099578555766 104.09277549620253 H 0.0 **** 0.06
1351 C 57.38255698839532 91.03502733865251 72.63006416681145 C 0.0 **** -0.24
1352 H 58.135870737292805 90.24805035868744 72.65957957207218 H 0.0 **** 0.06
1353 H 57.5864485323049 91.70098397521087 71.78998637035926 H 0.0 **** 0.06
1354 H 57.41349485716199 91.60284295207272 73.55965913149066 H 0.0 **** 0.06
1355 H 56.394856384618464 90.5892097615359 72.50882963956201 H 0.0 **** 0.06
1356 C 58.332583733369304 12.92878508375361 40.773388919487445 C 0.0 **** -0.24
1357 H 59.143408237369826 13.597835039838742 40.48502744392454 H 0.0 **** 0.06
1358 H 57.38318888422066 13.46000143717285 40.70606760969042 H 0.0 **** 0.06
1359 H 58.48775213147651 12.590908231251575 41.79783000271868 H 0.0 **** 0.06
1360 H 58.31722153735679 12.068238491300207 40.10490773562168 H 0.0 **** 0.06
1361 C 69.39612428446907 18.75904912475619 70.48632268043215 C 0.0 **** -0.24
1362 H 70.24899903967327 19.0937170220231 69.89656802485814 H 0.0 **** 0.06
1363 H 69.30413347181769 19.380865404644396 71.3767960131023 H 0.0 **** 0.06
1364 H 69.54376195384162 17.719445687022557 70.78136920474654 H 0.0 **** 0.06
1365 H 68.48747039962308 18.841655815267814 69.8897090494942 H 0.0 **** 0.06
1366 C 52.44552955360596 80.54778634600694 80.64290686901549 C 0.0 **** -0.24
1367 H 51.46993762604815 80.85948534796019 81.01543425729743 H 0.0 **** 0.06
1368 H 52.82607966546627 79.73373073096118 81.26066141596485 H 0.0 **** 0.06
1369 H 53.13631809276386 81.38894527997536 80.68494619868078 H 0.0 **** 0.06
1370 H 52.34883551542502 80.20786626150083 79.6125486477914 H 0.0 **** 0.06
1371 C 14.838502267641019 71.1591402892069 27.119168355092967 C 0.0 **** -0.24
1372 H 14.521585956015883 71.30555138869528 26.086735123468543 H 0.0 **** 0.06
1373 H 15.660562893843831 70.44347598323384 27.148468914649982 H 0.0 **** 0.06
1374 H 14.002857810783809 70.77819705175102 27.704595578883783 H 0.0 **** 0.06
1375 H 15.169749582591265 72.11087376371728 27.535431737373443 H 0.0 **** 0.06
1376 C 54.380054876036645 76.26013186929305 80.68870886556994 C 0.0 **** -0.24
1377 H 53.64086521903748 76.27809183154916 79.88815117418358 H 0.0 **** 0.06
1378 H 55.35125843332139 75.98068069841376 80.2795215183449 H 0.0 **** 0.06
1379 H 54.080762958777555 75.5335601727 81.44400712709324 H 0.0 **** 0.06
1380 H 54.447640971763626 77.24943924365232 81.14199093041088 H 0.0 **** 0.06
1381 C 48.604008124826805 4.243927676098494 49.76058597254117 C 0.0 **** -0.24
1382 H 48.47603178542296 3.1912116269346313 49.510931284865336 H 0.0 **** 0.06
1383 H 47.62764900874933 4.7274567488202734 49.80851444784709 H 0.0 **** 0.06
1384 H 49.21056449504265 4.7270421144769585 48.994412769973025 H 0.0 **** 0.06
1385 H 49.101353775551246 4.331164517152857 50.72662613565264 H 0.0 **** 0.06
1386 C 81.38529560886661 112.82087302376404 47.62523720084002 C 0.0 **** -0.24
1387 H 80.8808980575123 111.8595780025556 47.530937113711246 H 0.0 **** 0.06
1388 H 82.42079328185207 112.72194139814165 47.299134957796426 H 0.0 **** 0.06
1389 H 81.36124308776402 113.1428439246413 48.666545894643335 H 0.0 **** 0.06
1390 H 80.87815666571731 113.5597551125753 47.00510505165779 H 0.0 **** 0.06
1391 C 115.09706834830567 0.15007789194029897 50.093739588828726 C 0.0 **** -0.24
1392 H 115.27082350966944 -0.01775609068985773 49.03075959714903 H 0.0 **** 0.06
1393 H 115.54036689614864 1.10156570676142 50.38871404959656 H 0.0 **** 0.06
1394 H 115.55083264384058 -0.6574921886090692 50.668224648116166 H 0.0 **** 0.06
1395 H 114.02425686638205 0.17387472925196334 50.28625404154866 H 0.0 **** 0.06
1396 C 113.55358209358027 69.85140781871343 89.04580395639837 C 0.0 **** -0.24
1397 H 114.07061934283382 70.64235315618004 89.58867363068441 H 0.0 **** 0.06
1398 H 114.28262935197964 69.13827379565419 88.66105401902774 H 0.0 **** 0.06
1399 H 112.99580922712576 70.28556808423883 88.21574620190705 H 0.0 **** 0.06
1400 H 112.86432490879065 69.33974001010114 89.71785913695396 H 0.0 **** 0.06
1401 C 11.638842138242183 66.829636891653 27.24680385292467 C 0.0 **** -0.24
1402 H 11.723050578286859 67.2990617276947 28.227785458865895 H 0.0 **** 0.06
1403 H 12.636280861568395 66.65965806730551 26.839217237560746 H 0.0 **** 0.06
1404 H 11.078201229985083 67.48266661255742 26.578942013929122 H 0.0 **** 0.06
1405 H 11.11824351021913 65.87659725262375 27.34494720046044 H 0.0 **** 0.06
1406 C 69.39601861398901 46.51863526924809 14.459628315661135 C 0.0 **** -0.24
1407 H 70.05085647019155 47.08979957411585 15.117403543770052 H 0.0 **** 0.06
1408 H 68.85903993941878 47.201161486351054 13.80065074448153 H 0.0 **** 0.06
1409 H 68.68091678975804 45.954635808171034 15.059242853719041 H 0.0 **** 0.06
1410 H 69.99255007062803 45.828770527080124 13.862426146735828 H 0.0 **** 0.06
1411 C 111.93045105151418 37.495753610265496 48.19814154665954 C 0.0 **** -0.24
1412 H 112.41167512715946 37.63338848595572 49.16679763869172 H 0.0 **** 0.06
1413 H 110.85562768787469 37.38165758838106 48.339815122492155 H 0.0 **** 0.06
1414 H 112.33165947207706 36.60299457605187 47.717207318887304 H 0.0 **** 0.06
1415 H 112.12496276681054 38.3647248244151 47.56940966096984 H 0.0 **** 0.06
1416 C 68.74204170601473 88.40360229474982 15.331414434600106 C 0.0 **** -0.24
1417 H 67.87119932936923 88.82273787824727 14.828544267908825 H 0.0 **** 0.06
1418 H 69.06438706594861 87.50267598260263 14.809526712971604 H 0.0 **** 0.06
1419 H 68.48193227397581 88.15407460509613 16.360707707389082 H 0.0 **** 0.06
1420 H 69.55020298637305 89.13457313707397 15.328175634013917 H 0.0 **** 0.06
1421 C 87.71181313399813 95.95747135384107 97.70899012321348 C 0.0 **** -0.24
1422 H 86.90661891704991 96.67102879672865 97.88469902551445 H 0.0 **** 0.06
1423 H 87.68582292933581 95.6295466112035 96.66941546338533 H 0.0 **** 0.06
1424 H 87.58227218683248 95.09704339869262 98.36486311757952 H 0.0 **** 0.06
1425 H 88.66982116163746 96.43282981662495 97.91812278364308 H 0.0 **** 0.06
1426 C 70.74623264005335 99.42440870983407 44.345119694595894 C 0.0 **** -0.24
1427 H 71.61544762001553 98.7671962815148 44.36702146862845 H 0.0 **** 0.06
1428 H 70.07266784831197 99.11083546972668 43.545906331576134 H 0.0 **** 0.06
1429 H 71.06971726274085 100.44934217274425 44.16654033365131 H 0.0 **** 0.06
1430 H 70.22492806008573 99.36997042920231 45.30146671945309 H 0.0 **** 0.06
1431 C 83.15290012930902 106.5998461720534 21.51947921047207 C 0.0 **** -0.24
1432 H 82.50456738943889 106.01233351945763 20.868996984905152 H 0.0 **** 0.06
1433 H 83.38585314312262 107.55039013480766 21.03676627667471 H 0.0 **** 0.06
1434 H 84.07570848242752 106.05007559290011 21.704407854112787 H 0.0 **** 0.06
1435 H 82.64417147798164 106.78734296451191 22.465150228773354 H 0.0 **** 0.06
1436 C 65.28213683434672 21.86752624067765 99.30984087832725 C 0.0 **** -0.24
1437 H 66.12328600721412 21.178425367103955 99.38600264218032 H 0.0 **** 0.06
1438 H 65.54675333764328 22.69029667899008 98.64561541215922 H 0.0 **** 0.06
1439 H 65.0432909156242 22.259359595762874 100.29825363174909 H 0.0 **** 0.06
1440 H 64.41669855826638 21.3405713251546 98.90865683873113 H 0.0 **** 0.06
1441 C 44.01924886146094 85.09050489523813 18.77449998130308 C 0.0 **** -0.24
1442 H 44.87382670580092 85.41431401620758 19.37008458162893 H 0.0 **** 0.06
1443 H 44.23943823851445 84.12416696838334 18.319767907769943 H 0.0 **** 0.06
1444 H 43.823676558713174 85.82414544397089 17.992461253711127 H 0.0 **** 0.06
1445 H 43.142929943085676 84.99989999641441 19.41637338173632 H 0.0 **** 0.06
1446 C 40.89940303032529 74.9957564541267 17.82762124560786 C 0.0 **** -0.24
1447 H 40.108952284521905 74.77142762169797 17.112466953832566 H 0.0 **** 0.06
1448 H 40.70443413828946 75.9637087374262 18.29219116949087 H 0.0 **** 0.06
1449 H 41.85892683747633 75.02792101830462 17.310760430843196 H 0.0 **** 0.06
1450 H 40.92579124391921 74.22272479150396 18.59546709680077 H 0.0 **** 0.06
1451 C 56.37731910110914 39.08101578898726 46.972991603722505 C 0.0 **** -0.24
1452 H 56.05867224638227 39.19834195871391 45.93748821133926 H 0.0 **** 0.06
1453 H 55.84005491116336 39.79159330346624 47.60139940214543 H 0.0 **** 0.06
1454 H 57.44871649562762 39.26878761110362 47.047146516392786 H 0.0 **** 0.06
1455 H 56.16248063075339 38.066074643243155 47.306134827773974 H 0.0 **** 0.06
1456 C 97.73686724347236 72.66430086107624 71.69213665283498 C 0.0 **** -0.24
1457 H 98.66026834033565 72.57673207769264 72.26457937696689 H 0.0 **** 0.06
1458 H 96.98654270030372 71.99073052606468 72.10620988307703 H 0.0 **** 0.06
1459 H 97.92810589658208 72.39940475914761 70.65211626702235 H 0.0 **** 0.06
1460 H 97.37298448748186 73.69099447892668 71.74502500323021 H 0.0 **** 0.06
1461 C 66.67856621805163 62.44489914656708 24.6620441488907 C 0.0 **** -0.24
1462 H 66.6464517107863 61.8862554918895 25.597688581769532 H 0.0 **** 0.06
1463 H 67.20165647329188 63.38796905407722 24.82044013382123 H 0.0 **** 0.06
1464 H 65.66175356041947 62.64415272011183 24.3231096291437 H 0.0 **** 0.06
1465 H 67.20431644279287 61.85917523855554 23.907840747536547 H 0.0 **** 0.06
1466 C 53.195446642593986 9.525013695538078 21.650150960121692 C 0.0 **** -0.24
1467 H 52.961203243770925 8.678214583319232 21.004966603976456 H 0.0 **** 0.06
1468 H 54.11022490363743 10.00524363926715 21.301776838927694 H 0.0 **** 0.06
1469 H 53.33522100090431 9.173466191769165 22.673049836743317 H 0.0 **** 0.06
1470 H 52.37463181051397 10.24125817424924 21.62129992341343 H 0.0 **** 0.06
1471 C 101.66308484242919 79.7342432884956 115.00432212029034 C 0.0 **** -0.24
1472 H 101.50244549495716 78.98184364796734 115.77659820272714 H 0.0 **** 0.06
1473 H 100.71635084553174 80.21789853493414 114.76556524316965 H 0.0 **** 0.06
1474 H 102.06395552916268 79.25718476566067 114.10969569383178 H 0.0 **** 0.06
1475 H 102.37161085826563 80.4799151550166 115.36680381899077 H 0.0 **** 0.06
1476 C 81.28669452198962 66.25610578747214 68.11711720383164 C 0.0 **** -0.24
1477 H 82.20741738258424 65.81300501808073 68.4959781914734 H 0.0 **** 0.06
1478 H 80.43006645111008 65.7188804998359 68.52489891883926 H 0.0 **** 0.06
1479 H 81.27287012756388 66.19054148261534 67.02841529030681 H 0.0 **** 0.06
1480 H 81.23631891841592 67.30306126339815 68.41825198135638 H 0.0 **** 0.06
1481 C 97.50611903353739 1.9409955283397125 47.678276161701376 C 0.0 **** -0.24
1482 H 97.93821769823712 1.3703634032366097 48.50054332987429 H 0.0 **** 0.06
1483 H 97.56754944894277 1.3575176314849102 46.76026345071199 H 0.0 **** 0.06
1484 H 98.05650963577553 2.87409909421919 47.554173275980475 H 0.0 **** 0.06
1485 H 96.46195279724529 2.1621324686628327 47.899511060121654 H 0.0 **** 0.06
1486 C 47.42717270612464 37.02214011029943 77.48706954599669 C 0.0 **** -0.24
1487 H 46.78473235492987 37.54227103831633 76.77500291132077 H 0.0 **** 0.06
1488 H 48.157072793236054 37.72100096554291 77.89482545763877 H 0.0 **** 0.06
1489 H 47.94585084485158 36.208478582907674 76.98035320909332 H 0.0 **** 0.06
1490 H 46.81858742120684 36.618246843532546 78.29611017002628 H 0.0 **** 0.06
1491 C 32.347061916250425 54.49829837078451 8.87578756586106 C 0.0 **** -0.24
1492 H 31.533115369783644 54.30037131347576 9.572497258598304 H 0.0 **** 0.06
1493 H 32.248027032831885 55.50964943902034 8.480742382719157 H 0.0 **** 0.06
1494 H 32.30645291404747 53.780935420311614 8.056171279901392 H 0.0 **** 0.06
1495 H 33.30038832651687 54.40285069653746 9.394986003190766 H 0.0 **** 0.06
1496 C 76.68883778156933 42.04471299474693 12.517782649452187 C 0.0 **** -0.24
1497 H 76.1687283681935 41.21042165877583 12.989172887596084 H 0.0 **** 0.06
1498 H 77.04695445962138 42.73027474065674 13.287038263195711 H 0.0 **** 0.06
1499 H 76.00438692551194 42.569992980104075 11.852509432676214 H 0.0 **** 0.06
1500 H 77.53577633877538 41.66726977322293 11.944636718481632 H 0.0 **** 0.06
1501 C 92.49956447943507 25.244491855314124 97.41320097362654 C 0.0 **** -0.24
1502 H 91.6279583081989 25.256024343808207 96.75864291814324 H 0.0 **** 0.06
1503 H 92.2233569308674 24.818955578860027 98.37850760025873 H 0.0 **** 0.06
1504 H 92.86111332072501 26.263226983578193 97.55443039568831 H 0.0 **** 0.06
1505 H 93.28553863309489 24.63867160707973 96.96036865477409 H 0.0 **** 0.06
1506 C 110.06499398841089 25.60807274759233 7.423203930961208 C 0.0 **** -0.24
1507 H 111.0533132190697 25.85202700932568 7.81211901017403 H 0.0 **** 0.06
1508 H 109.37909383640967 25.440478778125623 8.253161614059564 H 0.0 **** 0.06
1509 H 110.12640119635182 24.705502156541712 6.814529895199954 H 0.0 **** 0.06
1510 H 109.70223364695434 26.434550422605213 6.811666383477544 H 0.0 **** 0.06
1511 C 104.81087717888596 55.371076154294 99.43841534295268 C 0.0 **** -0.24
1512 H 105.01322298498485 54.82083008711544 98.51965640879878 H 0.0 **** 0.06
1513 H 103.7474083407393 55.31005383957 99.6712068931083 H 0.0 **** 0.06
1514 H 105.09620439149563 56.41492194890793 99.30706122993173 H 0.0 **** 0.06
1515 H 105.38731367795077 54.93690510475943 100.25596049568385 H 0.0 **** 0.06
1516 C 83.41323195860336 65.4522771560909 7.954059361671849 C 0.0 **** -0.24
1517 H 83.11027799858417 66.11991754244906 7.148253122282258 H 0.0 **** 0.06
1518 H 83.8498909416632 64.54710390228331 7.530771128138511 H 0.0 **** 0.06
1519 H 82.54212284637384 65.1890843406203 8.55439263019478 H 0.0 **** 0.06
1520 H 84.14998974190793 65.95225192594569 8.582684642804395 H 0.0 **** 0.06
1521 C 55.38168188932441 14.0897966284939 23.523531271906165 C 0.0 **** -0.24
1522 H 55.24364764722233 14.943926820285895 22.861585170228693 H 0.0 **** 0.06
1523 H 54.415594862890394 13.624745759457255 23.72249398727223 H 0.0 **** 0.06
1524 H 55.82376280806014 14.424450423407052 24.461597267892728 H 0.0 **** 0.06
1525 H 56.043358579896875 13.364750869974301 23.04806808413673 H 0.0 **** 0.06
1526 C 98.76172032021513 48.01564589990853 89.07821861139979 C 0.0 **** -0.24
1527 H 97.81769905322771 47.609549152976186 88.714863640894 H 0.0 **** 0.06
1528 H 99.03284263888818 47.52388215452264 90.01354624335852 H 0.0 **** 0.06
1529 H 98.65512392014772 49.08739244274307 89.24854524292097 H 0.0 **** 0.06
1530 H 99.54178760796093 47.8406747143589 88.33662322257236 H 0.0 **** 0.06
1531 C 14.96740034723311 57.92696277203163 112.09690674966396 C 0.0 **** -0.24
1532 H 14.335106903851226 57.60836869920888 111.26926173548989 H 0.0 **** 0.06
1533 H 15.355541568047187 57.050394894759165 112.61531940849267 H 0.0 **** 0.06
1534 H 14.382876829741264 58.52999645380197 112.79081172690607 H 0.0 **** 0.06
1535 H 15.7982781912186 58.518871405467166 111.71191352969376 H 0.0 **** 0.06
1536 C 10.860483318213138 36.75077329756064 113.46511683189831 C 0.0 **** -0.24
1537 H 10.839568050124434 36.376335522405014 114.48859885973256 H 0.0 **** 0.06
1538 H 11.768418046776244 37.33330363773065 113.31044150205203 H 0.0 **** 0.06
1539 H 9.988688177472017 37.38213342338855 113.29174667249 H 0.0 **** 0.06
1540 H 10.844621580110754 35.91010462531506 112.77144533477978 H 0.0 **** 0.06
1541 C 78.32842869712036 112.48908235700573 16.165558594891593 C 0.0 **** -0.24
1542 H 78.52084470631337 113.26842606936344 15.428001798486605 H 0.0 **** 0.06
1543 H 78.43014372476864 111.51054439679159 15.694616818502425 H 0.0 **** 0.06
1544 H 77.31716969703945 112.59980507110554 16.556190435719486 H 0.0 **** 0.06
1545 H 79.04512305528564 112.57683017827976 16.981611917270982 H 0.0 **** 0.06
1546 C 115.64767923318962 5.404230593755898 112.76469941710297 C 0.0 **** -0.24
1547 H 116.15429152139166 4.523166845797434 113.1572655326174 H 0.0 **** 0.06
1548 H 114.85986486356273 5.095227099237235 112.07750080745878 H 0.0 **** 0.06
1549 H 116.36579630986492 6.030615220369938 112.23513852392618 H 0.0 **** 0.06
1550 H 115.21075785107917 5.969864217204318 113.58780018694667 H 0.0 **** 0.06
1551 C 50.8349702405869 13.514449172717299 4.137027730163519 C 0.0 **** -0.24
1552 H 49.94101079421503 13.53931997942539 3.5139470771388357 H 0.0 **** 0.06
1553 H 50.967739521301695 14.48221762963431 4.62083564220125 H 0.0 **** 0.06
1554 H 51.70388721587193 13.296480749526104 3.5148881196622455 H 0.0 **** 0.06
1555 H 50.72754459128362 12.73855519471757 4.8953718798268575 H 0.0 **** 0.06
1556 C 100.31818969917413 103.06437016759502 71.18740839778266 C 0.0 **** -0.24
1557 H 100.56601560357558 104.12532531405633 71.19153067704895 H 0.0 **** 0.06
1558 H 99.5993711072224 102.86309851826738 70.39212090285785 H 0.0 **** 0.06
1559 H 99.88333380704427 102.78990624209322 72.1478017473652 H 0.0 **** 0.06
1560 H 101.22231784483944 102.4802084768427 71.01722043097985 H 0.0 **** 0.06
1561 C 43.6336947797617 60.164902574348616 21.803894605541302 C 0.0 **** -0.24
1562 H 44.24586454237166 60.82408473935618 21.18733180722227 H 0.0 **** 0.06
1563 H 43.08416555875158 60.758414083543016 22.534487701777657 H 0.0 **** 0.06
1564 H 44.27621483170965 59.45289164831752 22.32177197684238 H 0.0 **** 0.06
1565 H 42.92995894306854 59.62502346948395 21.170163596937538 H 0.0 **** 0.06
1566 C 88.03959692083396 69.7457550730986 22.810015723558877 C 0.0 **** -0.24
1567 H 87.55839089438325 68.98709393394043 22.192875882330313 H 0.0 **** 0.06
1568 H 87.28472440495574 70.26400860117445 23.402051504857766 H 0.0 **** 0.06
1569 H 88.5532804646773 70.46246441308949 22.16925875445527 H 0.0 **** 0.06
1570 H 88.76004295678831 69.27019746056936 23.473966702655588 H 0.0 **** 0.06
1571 C 77.11340636549662 115.12965773448235 36.57309687378398 C 0.0 **** -0.24
1572 H 76.8161748103754 114.42904098116708 37.35213924033053 H 0.0 **** 0.06
1573 H 77.2394352511682 116.12254605406099 37.006108561730855 H 0.0 **** 0.06
1574 H 76.34440517948204 115.16451185320835 35.80209826243944 H 0.0 **** 0.06
1575 H 78.05611829534286 114.80412052026833 36.1316091862021 H 0.0 **** 0.06
1576 C 114.46658020571905 58.7378963144273 93.80553495382827 C 0.0 **** -0.24
1577 H 115.13932308113074 58.57083890747231 94.6459826493491 H 0.0 **** 0.06
1578 H 115.02948671141675 58.68636505360138 92.87329068469302 H 0.0 **** 0.06
1579 H 114.00585276926249 59.72183239205788 93.89820980987838 H 0.0 **** 0.06
1580 H 113.69027530691554 57.972463150246995 93.80493986343993 H 0.0 **** 0.06
1581 C 114.77600548784253 24.18344751704859 113.30904407551554 C 0.0 **** -0.24
1582 H 115.10955807950266 24.967651993360164 112.63000613995047 H 0.0 **** 0.06
1583 H 114.23650106498867 24.630148813736184 114.14398506888477 H 0.0 **** 0.06
1584 H 115.64173366247387 23.637208728214915 113.6858086766211 H 0.0 **** 0.06
1585 H 114.11843351904538 23.497723684015796 112.7762210329156 H 0.0 **** 0.06
1586 C 33.12473782609362 33.70687278742619 74.33378908834057 C 0.0 **** -0.24
1587 H 32.748619360594546 34.52919514550146 74.94373292582654 H 0.0 **** 0.06
1588 H 32.430542470445516 33.51593275412637 73.51531717370084 H 0.0 **** 0.06
1589 H 33.21987926093033 32.812609820442304 74.94874302199842 H 0.0 **** 0.06
1590 H 34.10036691143688 33.97431149241541 73.92749239755855 H 0.0 **** 0.06
1591 C 59.061036145257106 59.3725028545976 103.11069011078911 C 0.0 **** -0.24
1592 H 59.42736303894847 58.926278632057574 104.03510456878399 H 0.0 **** 0.06
1593 H 59.8312566583225 59.300603140748876 102.34287285518454 H 0.0 **** 0.06
1594 H 58.817502782882684 60.420275354806336 103.28481307452995 H 0.0 **** 0.06
1595 H 58.167118347273146 58.84200609054918 102.78065104635655 H 0.0 **** 0.06
1596 C 1.0163418815973557 12.603180112632856 67.25165311918875 C 0.0 **** -0.24
1597 H 0.22287156338273917 13.14344375227381 66.73587063177686 H 0.0 **** 0.06
1598 H 1.1615579659836328 11.631132376581817 66.77936073704376 H 0.0 **** 0.06
1599 H 0.7381803142414185 12.46156756110642 68.29681323976399 H 0.0 **** 0.06
1600 H 1.94201080611586 13.176643265706872 67.19667453298081 H 0.0 **** 0.06
1601 C 54.388515093562184 47.49866199626054 110.00407915165447 C 0.0 **** -0.24
1602 H 53.58562586663866 47.06217935206827 109.40970186111814 H 0.0 **** 0.06
1603 H 55.13639961895185 46.73588564926959 110.21968413592639 H 0.0 **** 0.06
1604 H 53.98055445258403 47.883446509128945 110.9383358102213 H 0.0 **** 0.06
1605 H 54.85039050543635 48.31432156264515 109.44674873363154 H 0.0 **** 0.06
1606 C 6.283034501614466 17.286806909860726 8.608025089107542 C 0.0 **** -0.24
1607 H 5.898741738610909 18.19017188507976 9.080745193854966 H 0.0 **** 0.06
1608 H 7.37176328553835 17.2770718729243 8.675992203724974 H 0.0 **** 0.06
1609 H 5.98413226747525 17.269857205826515 7.5600905975042 H 0.0 **** 0.06
1610 H 5.879148852666509 16.411158806446547 9.115739881475719 H 0.0 **** 0.06
1611 C 97.32767174190278 44.795259056549256 37.94779010980464 C 0.0 **** -0.24
1612 H 98.36795039949499 44.94100914040979 38.236915895568025 H 0.0 **** 0.06
1613 H 97.25033804370759 43.92176212278713 37.300194422308245 H 0.0 **** 0.06
1614 H 96.97302075837115 45.67761333211857 37.41384325699446 H 0.0 **** 0.06
1615 H 96.72027942071776 44.64212737217268 38.84011002909771 H 0.0 **** 0.06
1616 C 42.594627848922585 104.64767710407203 38.733956998064514 C 0.0 **** -0.24
1617 H 43.02670548628083 103.66694685225832 38.53314443615017 H 0.0 **** 0.06
1618 H 41.73513231087344 104.80531907008198 38.082441087175255 H 0.0 **** 0.06
1619 H 43.34095096298324 105.41920267044632 38.544569393312486 H 0.0 **** 0.06
1620 H 42.27644843678394 104.69738250999823 39.775518717037585 H 0.0 **** 0.06
1621 C 23.550944026888867 98.64219789269413 42.41702397678003 C 0.0 **** -0.24
1622 H 23.444148797618535 98.28700908145362 43.44175038639082 H 0.0 **** 0.06
1623 H 23.761700939377928 97.7990244607584 41.75944308982892 H 0.0 **** 0.06
1624 H 24.371806767802646 99.35808809324581 42.36492610619152 H 0.0 **** 0.06
1625 H 22.626119410952 99.12638753247009 42.10300106244944 H 0.0 **** 0.06
1626 C 8.79352820401698 72.23737005277451 57.55383941480379 C 0.0 **** -0.24
1627 H 7.787601171437654 72.17678933994642 57.968084852695185 H 0.0 **** 0.06
1628 H 9.1266809305531 73.27479922749518 57.56065678537975 H 0.0 **** 0.06
1629 H 8.786573970573087 71.86445795647809 56.52942456429638 H 0.0 **** 0.06
1630 H 9.471657523314363 71.63315594227689 58.15658687174593 H 0.0 **** 0.06
1631 C 102.65276104467614 45.819833228796824 68.51795070450203 C 0.0 **** -0.24
1632 H 103.50831894297814 45.65798881780921 69.17465436601408 H 0.0 **** 0.06
1633 H 102.95401266718804 46.44312656524579 67.67651004501522 H 0.0 **** 0.06
1634 H 101.85732362438773 46.315701861677155 69.07366837125082 H 0.0 **** 0.06
1635 H 102.29281856890215 44.8586901931846 68.14849416731803 H 0.0 **** 0.06
1636 C 85.39920991021484 41.072938334734715 43.23148748139449 C 0.0 **** -0.24
1637 H 85.00356020581845 40.397455044650485 43.98876754007042 H 0.0 **** 0.06
1638 H 84.906685117119 42.04179535438402 43.31574288261374 H 0.0 **** 0.06
1639 H 85.21652234204001 40.655733128547695 42.241609419967375 H 0.0 **** 0.06
1640 H 86.4725671162359 41.19688006537217 43.38149219917495 H 0.0 **** 0.06
1641 C 100.68687129361348 59.33613417869719 62.08490048840413 C 0.0 **** -0.24
1642 H 100.09736765465362 58.83474374624005 61.31641449229802 H 0.0 **** 0.06
1643 H 100.55536556185976 60.415066070057534 61.997123345893655 H 0.0 **** 0.06
1644 H 101.73975476417303 59.086074960095544 61.95561273945086 H 0.0 **** 0.06
1645 H 100.35341818677472 59.00825652085676 63.069859301254425 H 0.0 **** 0.06
1646 C 16.047385521681974 24.53465652737838 90.34251462149524 C 0.0 **** -0.24
1647 H 16.722506553951504 25.178097542264588 90.90498123969984 H 0.0 **** 0.06
1648 H 15.789435103668609 25.01556120104221 89.39851097793964 H 0.0 **** 0.06
1649 H 15.140313868240355 24.362846781846038 90.92269134154238 H 0.0 **** 0.06
1650 H 16.537312236663638 23.58088671843034 90.14318425368968 H 0.0 **** 0.06
1651 C 104.04505760165605 98.30520548969352 22.289855482883354 C 0.0 **** -0.24
1652 H 104.28274707628066 97.95953771537813 23.29652828464134 H 0.0 **** 0.06
1653 H 104.9690620949656 98.50287229051258 21.746046588383678 H 0.0 **** 0.06
1654 H 103.45615150266975 99.22135859540083 22.350309963444687 H 0.0 **** 0.06
1655 H 103.47213005850004 97.53883375497696 21.768947735566826 H 0.0 **** 0.06
1656 C 20.195606092028356 34.904502583614345 84.90351918487335 C 0.0 **** -0.24
1657 H 19.15422930928122 34.846065849515696 85.22282029201705 H 0.0 **** 0.06
1658 H 20.751159700284063 34.06546032566405 85.32298296054012 H 0.0 **** 0.06
1659 H 20.630936852506295 35.83994646589838 85.25390666014238 H 0.0 **** 0.06
1660 H 20.244788949397673 34.865513603232216 83.81586234846742 H 0.0 **** 0.06
1661 C 111.79369974952294 4.881757591694452 92.37993001269079 C 0.0 **** -0.24
1662 H 111.93743936753903 5.802754625252021 92.94518213149222 H 0.0 **** 0.06
1663 H 110.74436701348024 4.591049328930865 92.42001765218248 H 0.0 **** 0.06
1664 H 112.40721151648054 4.091531994622699 92.81236539226931 H 0.0 **** 0.06
1665 H 112.08816980463833 5.043342500289555 91.34291542028899 H 0.0 **** 0.06
1666 C 8.978458543931254 50.72670004381427 38.31624348634554 C 0.0 **** -0.24
1667 H 9.905208167263368 50.42443098866951 38.80522321806065 H 0.0 **** 0.06
1668 H 8.905890418884667 50.23969311986362 37.343562807602126 H 0.0 **** 0.06
1669 H 8.974534598370894 51.809003163875595 38.18311884248166 H 0.0 **** 0.06
1670 H 8.130093242640271 50.433676629092766 38.93426056997211 H 0.0 **** 0.06
1671 C 70.80270204978508 20.67949941382608 10.306435418071445 C 0.0 **** -0.24
1672 H 70.50073551747926 21.262874060762307 9.435960344740437 H 0.0 **** 0.06
1673 H 70.04218048146815 19.928847728945364 10.522543199103552 H 0.0 **** 0.06
1674 H 70.91568364111659 21.340426451397033 11.165374370064228 H 0.0 **** 0.06
1675 H 71.75248132004916 20.185602691382545 10.100171156862373 H 0.0 **** 0.06
1676 C 15.197830442478278 110.88560580785625 95.47509677214282 C 0.0 **** -0.24
1677 H 14.30137103223106 110.78610515601429 94.86205780804727 H 0.0 **** 0.06
1678 H 14.923327226007473 110.84308794119102 96.52954535863222 H 0.0 **** 0.06
1679 H 15.678441083524888 111.84042344960095 95.26291710056091 H 0.0 **** 0.06
1680 H 15.886643390129393 110.07355616744644 95.24560260920049 H 0.0 **** 0.06
1681 C 55.47013717294846 7.098896665625219 50.50131451573638 C 0.0 **** -0.24
1682 H 56.34057486588489 6.650620936819365 50.021614939772554 H 0.0 **** 0.06
1683 H 55.19792111611925 8.01479157647887 49.97561445453067 H 0.0 **** 0.06
1684 H 55.70658144531518 7.331788117862786 51.53942877530587 H 0.0 **** 0.06
1685 H 54.63595338511559 6.3982356391244934 50.465816838043104 H 0.0 **** 0.06
1686 C 107.71255459821941 73.71081375179966 30.17426869923628 C 0.0 **** -0.24
1687 H 107.61838662582164 73.83842377696521 31.25306046617041 H 0.0 **** 0.06
1688 H 107.3077644209911 72.74023852688401 29.886840062586174 H 0.0 **** 0.06
1689 H 108.76492496965814 73.76400701027006 29.893514907735835 H 0.0 **** 0.06
1690 H 107.1600179872489 74.50022337416101 29.66591820348063 H 0.0 **** 0.06
1691 C 28.64017178522311 4.60461719255207 65.48660105752845 C 0.0 **** -0.24
1692 H 28.84088947316404 5.67559428669442 65.46882470040418 H 0.0 **** 0.06
1693 H 28.958945175210097 4.160503784468773 64.54392331505414 H 0.0 **** 0.06
1694 H 27.57187908425191 4.43700833831906 65.62555271196197 H 0.0 **** 0.06
1695 H 29.189242455998063 4.145588662425325 66.30947336202325 H 0.0 **** 0.06
1696 C 54.29449129390173 52.960038718815554 70.07393578411711 C 0.0 **** -0.24
1697 H 54.40042223507669 53.006836812398745 71.15826976873302 H 0.0 **** 0.06
1698 H 53.61640922278673 53.745652985816434 69.74147007274019 H 0.0 **** 0.06
1699 H 53.89317672370396 51.98728518524831 69.78950874876284 H 0.0 **** 0.06
1700 H 55.270029569689484 53.101225261898264 69.6074895943434 H 0.0 **** 0.06
1701 C 60.14867625314787 85.76899446973108 58.020525901893734 C 0.0 **** -0.24
1702 H 61.04812269060102 86.38329950663336 58.035116850295424 H 0.0 **** 0.06
1703 H 59.94161527086783 85.45140168019647 56.99815112999184 H 0.0 **** 0.06
1704 H 59.306509561035625 86.34857306340838 58.39988921816996 H 0.0 **** 0.06
1705 H 60.298134567964496 84.8919099581044 58.65045172599355 H 0.0 **** 0.06
1706 C 75.83324046602547 64.82536647683969 104.20487076938244 C 0.0 **** -0.24
1707 H 76.15356783676305 65.86199429165544 104.09491727406927 H 0.0 **** 0.06
1708 H 75.36046931829705 64.49159909783742 103.28151152251547 H 0.0 **** 0.06
1709 H 75.12088472326327 64.75056661947099 105.02571652777141 H 0.0 **** 0.06
1710 H 76.69939906844802 64.1990680078602 104.41711832473584 H 0.0 **** 0.06
1711 C 43.128950572494446 35.778546632025666 76.82655494240217 C 0.0 **** -0.24
1712 H 43.34051420658158 36.75009608051499 76.3790539940853 H 0.0 **** 0.06
1713 H 43.70688253998278 35.00943127451191 76.31331639110225 H 0.0 **** 0.06
1714 H 42.06521052142176 35.55832518373154 76.73088763572568 H 0.0 **** 0.06
1715 H 43.40379157933939 35.796721164942966 77.88084172541805 H 0.0 **** 0.06
1716 C 99.7599616193479 43.95270473723363 4.3304332141266855 C 0.0 **** -0.24
1717 H 100.50104364042522 43.79238231594087 5.113626500925648 H 0.0 **** 0.06
1718 H 98.76041666043056 43.79597809134441 4.737642331908376 H 0.0 **** 0.06
1719 H 99.93517432572656 43.24967941955896 3.516226574806126 H 0.0 **** 0.06
1720 H 99.84321185080915 44.97277912209026 3.954237448866195 H 0.0 **** 0.06
1721 C 114.43654431038111 42.74882049460618 82.41609452826216 C 0.0 **** -0.24
1722 H 114.37711792505186 42.968388128984 83.48283873506512 H 0.0 **** 0.06
1723 H 115.3646701049214 42.21533330086638 82.20684210894476 H 0.0 **** 0.06
1724 H 114.41758372292809 43.68104258454471 81.85179140927082 H 0.0 **** 0.06
1725 H 113.5882124285328 42.13012690148801 82.1255265661494 H 0.0 **** 0.06
1726 C 81.45509459382646 52.465622477873524 35.90190506467667 C 0.0 **** -0.24
1727 H 81.20465097865576 53.52453447717204 35.972168681743995 H 0.0 **** 0.06
1728 H 80.55643566751253 51.89619572511842 35.661880195220135 H 0.0 **** 0.06
1729 H 81.85880230658971 52.124298813554105 36.85480577240466 H 0.0 **** 0.06
1730 H 82.19781122319257 52.31983654526593 35.11833633515613 H 0.0 **** 0.06
1731 C 42.70701798744274 53.22805342302981 31.7924336500418 C 0.0 **** -0.24
1732 H 42.51348287044783 54.27437966837132 31.55697011167166 H 0.0 **** 0.06
1733 H 42.573416225517505 53.06688168651157 32.862993736301405 H 0.0 **** 0.06
1734 H 43.72994745354876 52.97646014692562 31.51183838487478 H 0.0 **** 0.06
1735 H 42.01193588223933 52.59719177963694 31.23998373641527 H 0.0 **** 0.06
1736 C 26.993543251576888 35.98481728192872 17.618165999849055 C 0.0 **** -0.24
1737 H 27.22431678682581 35.99613584437796 18.683022785679384 H 0.0 **** 0.06
1738 H 26.91750724310453 34.95307964669671 17.27380924611566 H 0.0 **** 0.06
1739 H 27.787584908458953 36.49261609137032 17.07014884364719 H 0.0 **** 0.06
1740 H 26.046982491302863 36.49718842736837 17.44555342326879 H 0.0 **** 0.06
1741 C 55.10878668577897 112.02667260488249 59.343081363174875 C 0.0 **** -0.24
1742 H 55.87900897519448 111.72246536205202 60.050926021264644 H 0.0 **** 0.06
1743 H 55.4850910257881 111.91407565856474 58.325674070440726 H 0.0 **** 0.06
1744 H 54.84419475202748 113.06881472170087 59.52023506513437 H 0.0 **** 0.06
1745 H 54.22637185916223 111.4004803345039 59.475689367896265 H 0.0 **** 0.06
1746 C 18.65534027031731 43.51933089487545 25.477140696323715 C 0.0 **** -0.24
1747 H 18.976447254756124 43.15403432412717 24.502492974140438 H 0.0 **** 0.06
1748 H 18.658872284956715 44.60979580186634 25.475583787215186 H 0.0 **** 0.06
1749 H 19.33813392722891 43.15415609811356 26.24462865855449 H 0.0 **** 0.06
1750 H 17.64722859834174 43.15998852944688 25.6869133120544 H 0.0 **** 0.06
1751 C 86.2987205648262 75.30170337951205 25.73651176966112 C 0.0 **** -0.24
1752 H 87.28518997117011 74.87596648251375 25.554095396339804 H 0.0 **** 0.06
1753 H 86.36327493181922 76.38994926421486 25.716431313042612 H 0.0 **** 0.06
1754 H 85.93844549996847 74.97739476583752 26.71351455103818 H 0.0 **** 0.06
1755 H 85.60821293194232 74.9628210250485 24.963870493180288 H 0.0 **** 0.06
1756 C 45.999016331221526 106.58824245273615 113.93834388357804 C 0.0 **** -0.24
1757 H 46.15079385608422 106.64239673045806 115.01657599074625 H 0.0 **** 0.06
1758 H 46.96630757713778 106.54141414178424 113.43730461014422 H 0.0 **** 0.06
1759 H 45.457639540013844 107.47285786568905 113.60264862316444 H 0.0 **** 0.06
1760 H 45.421739545549144 105.69536710993276 113.69856548286003 H 0.0 **** 0.06
1761 C 56.89327929854227 85.61795607973646 76.58747705693622 C 0.0 **** -0.24
1762 H 55.94384951062641 85.675124634865 76.05654269048227 H 0.0 **** 0.06
1763 H 57.550095626748984 86.41805278667836 76.24644610359127 H 0.0 **** 0.06
1764 H 57.361885834145156 84.65408721396646 76.39062879635651 H 0.0 **** 0.06
1765 H 56.71727975160502 85.72403678130844 77.6584647614606 H 0.0 **** 0.06
1766 C 83.84185705416418 81.94160867878475 37.19821412866165 C 0.0 **** -0.24
1767 H 82.94906429559835 81.73136859245028 36.60923216386067 H 0.0 **** 0.06
1768 H 83.73782190193225 81.49658214170427 38.188001301744976 H 0.0 **** 0.06
1769 H 83.96600690923472 83.02037919164678 37.29529953232466 H 0.0 **** 0.06
1770 H 84.71402505226632 81.51904323520444 36.69939654622149 H 0.0 **** 0.06
1771 C 14.728800959202822 7.791399940986992 32.5053650064138 C 0.0 **** -0.24
1772 H 13.664698562465087 7.858145660116122 32.73532965696546 H 0.0 **** 0.06
1773 H 15.01638661244272 6.742987509900786 32.42206157937996 H 0.0 **** 0.06
1774 H 15.303123871020581 8.264508292908488 33.30182607277408 H 0.0 **** 0.06
1775 H 14.928569739422624 8.299672549698926 31.562437171592876 H 0.0 **** 0.06
1776 C 31.673202445544717 85.7824983216729 68.63778164098011 C 0.0 **** -0.24
1777 H 32.159384782710816 85.6103324067414 69.59782755871015 H 0.0 **** 0.06
1778 H 32.42831287404297 85.84110801146772 67.85327303377579 H 0.0 **** 0.06
1779 H 31.115135358374943 86.7176208459232 68.67578823895587 H 0.0 **** 0.06
1780 H 30.990416738689817 84.95974549736877 68.42360630817484 H 0.0 **** 0.06
1781 C 48.91685516802761 98.94545618934725 1.5186396619616147 C 0.0 **** -0.24
1782 H 49.47107242412437 98.40797617924147 2.2881070277367996 H 0.0 **** 0.06
1783 H 49.42132114543739 99.88783345085989 1.2985740060488524 H 0.0 **** 0.06
1784 H 47.90690316070993 99.14896537445333 1.8738768795517444 H 0.0 **** 0.06
1785 H 48.86948553554868 98.33869680546937 0.6146591906565675 H 0.0 **** 0.06
1786 C 11.51046151770774 32.51738409778497 16.147947722439312 C 0.0 **** -0.24
1787 H 12.487332360862183 32.15182451685402 15.828407096618207 H 0.0 **** 0.06
1788 H 11.080331212803003 31.821499998466777 16.86770236840306 H 0.0 **** 0.06
1789 H 10.8531292232297 32.597939133361066 15.282158083641065 H 0.0 **** 0.06
1790 H 11.623670462024833 33.49746283177251 16.611403186964964 H 0.0 **** 0.06
1791 C 37.07273004737869 105.18870139404022 42.40358168969124 C 0.0 **** -0.24
1792 H 36.92795055126879 105.31282102467236 41.32972422686338 H 0.0 **** 0.06
1793 H 36.639044889886 104.23991146699099 42.72045776381577 H 0.0 **** 0.06
1794 H 36.58426368086246 106.00731437565462 42.931505842421984 H 0.0 **** 0.06
1795 H 38.13904550905741 105.19507686047035 42.62896188018985 H 0.0 **** 0.06
1796 C 0.8821258117304733 62.26444626280403 90.11454799340414 C 0.0 **** -0.24
1797 H 1.066076510140686 61.79600476393864 91.08112868098755 H 0.0 **** 0.06
1798 H 1.8306889938868878 62.42371949787287 89.60147733935766 H 0.0 **** 0.06
1799 H 0.3844353196923027 63.22325406928968 90.26523113809219 H 0.0 **** 0.06
1800 H 0.24731463305958812 61.61659592796104 89.51124857893508 H 0.0 **** 0.06
1801 C 27.1422560057469 56.594760213204324 10.378544047858924 C 0.0 **** -0.24
1802 H 26.685653866030066 57.136562436441864 11.20648206348011 H 0.0 **** 0.06
1803 H 28.110836704801272 56.20303732060961 10.691831858562296 H 0.0 **** 0.06
1804 H 27.280048574494003 57.27042512966949 9.534785406403273 H 0.0 **** 0.06
1805 H 26.494416732069965 55.76980743469653 10.081877987394336 H 0.0 **** 0.06
1806 C 45.18980012841913 103.1281944755217 85.58919887497049 C 0.0 **** -0.24
1807 H 44.19706428597565 102.9305833045346 85.18556798953725 H 0.0 **** 0.06
1808 H 45.15905381774767 104.03036642708724 86.20177630068883 H 0.0 **** 0.06
1809 H 45.894600559846516 103.26964895010468 84.76973713262652 H 0.0 **** 0.06
1810 H 45.507235173991084 102.28418717094263 86.20035771846156 H 0.0 **** 0.06
1811 C 94.61904237337326 91.73050136433595 15.275681287620017 C 0.0 **** -0.24
1812 H 94.99161611212197 91.25647086083029 16.18458256455756 H 0.0 **** 0.06
1813 H 94.13388942456675 90.98113342603592 14.649280511969636 H 0.0 **** 0.06
1814 H 95.45151923797182 92.17659534981229 14.731169576670311 H 0.0 **** 0.06
1815 H 93.89970982441972 92.5054466873891 15.539457619833144 H 0.0 **** 0.06
1816 C 18.5543709908913 45.472886529148575 115.70369193039357 C 0.0 **** -0.24
1817 H 18.642043368526913 45.546395499336164 114.62028874203054 H 0.0 **** 0.06
1818 H 19.127509885166887 46.2750806316123 116.16937210726405 H 0.0 **** 0.06
1819 H 18.941007368016642 44.509436741845235 116.03555238187568 H 0.0 **** 0.06
1820 H 17.506214918855505 45.5618072576173 115.98990081703529 H 0.0 **** 0.06
1821 C 48.302713606247664 10.467723057112593 71.10723014013324 C 0.0 **** -0.24
1822 H 48.01657930012329 11.430092639759422 70.6818614194726 H 0.0 **** 0.06
1823 H 48.28895971276951 9.706934660485956 70.32655772538168 H 0.0 **** 0.06
1824 H 47.59778457279243 10.195540162440551 71.89339814934092 H 0.0 **** 0.06
1825 H 49.305173983512745 10.54043320199699 71.52712047233736 H 0.0 **** 0.06
1826 C 39.15525918359093 108.48578149400544 75.16491737542333 C 0.0 **** -0.24
1827 H 38.22436955006924 108.81503140256612 75.62847496754586 H 0.0 **** 0.06
1828 H 39.90442481922787 109.27151298405067 75.25756390323738 H 0.0 **** 0.06
1829 H 38.97904801739165 108.27265108758652 74.11050160435326 H 0.0 **** 0.06
1830 H 39.50955875371973 107.58322975107436 75.6636695828036 H 0.0 **** 0.06
1831 C 54.11596603581319 27.511573878447336 89.60172247972628 C 0.0 **** -0.24
1832 H 54.166149561022195 26.43418052260185 89.75202749861461 H 0.0 **** 0.06
1833 H 54.69648026688327 27.78227571545345 88.71848274608374 H 0.0 **** 0.06
1834 H 54.52502170195302 28.019839811231464 90.47438776876686 H 0.0 **** 0.06
1835 H 53.07818801094365 27.8115190723358 89.46032184307185 H 0.0 **** 0.06
1836 C 42.034133142761114 0.23422577348948437 31.264685826315826 C 0.0 **** -0.24
1837 H 42.120829229851985 0.7383998648941059 32.22668882757782 H 0.0 **** 0.06
1838 H 41.223235055760604 -0.4935121440647663 31.30742246326031 H 0.0 **** 0.06
1839 H 42.97025425105585 -0.2769623901023124 31.03680741734945 H 0.0 **** 0.06
1840 H 41.8231324933606 0.9691185743956083 30.487454918605636 H 0.0 **** 0.06
1841 C 76.4944825858027 13.941637748607349 11.743132912498893 C 0.0 **** -0.24
1842 H 76.40932113628406 13.276089389455166 12.602272875559635 H 0.0 **** 0.06
1843 H 75.85383001273993 13.581234332626494 10.938728056599984 H 0.0 **** 0.06
1844 H 77.53001109169662 13.964142969602193 11.40162030712078 H 0.0 **** 0.06
1845 H 76.18612854774511 14.947528205075258 12.031692868455451 H 0.0 **** 0.06
1846 C 1.8957212105409518 92.61009818407001 108.38951016797509 C 0.0 **** -0.24
1847 H 2.2231424342334964 93.55838111452172 107.96219244795566 H 0.0 **** 0.06
1848 H 2.377799341695251 92.46345195545595 109.35594542281554 H 0.0 **** 0.06
1849 H 2.170010196425162 91.79580191505964 107.71855807234098 H 0.0 **** 0.06
1850 H 0.8139504750130158 92.62509505579924 108.51977407319247 H 0.0 **** 0.06
1851 C 6.975836356352943 68.38946781425943 3.2327129231500233 C 0.0 **** -0.24
1852 H 6.891191181165254 68.05688179693004 2.197617588429255 H 0.0 **** 0.06
1853 H 7.944697336051888 68.09096894517995 3.630978268092722 H 0.0 **** 0.06
1854 H 6.182108700043386 67.93549736840441 3.825675631085238 H 0.0 **** 0.06
1855 H 6.884125237517594 69.47527019918749 3.2735890713233005 H 0.0 **** 0.06
1856 C 49.828464448722684 2.9422063772227602 74.39130663091998 C 0.0 **** -0.24
1857 H 49.276158862746826 3.3269038755930183 73.5340990052145 H 0.0 **** 0.06
1858 H 50.05473850642973 3.7605697883880396 75.07480200850716 H 0.0 **** 0.06
1859 H 50.75825292890269 2.4858289721055655 74.04997150490982 H 0.0 **** 0.06
1860 H 49.225045279607386 2.1942317743513797 74.90588594384292 H 0.0 **** 0.06
1861 C 37.424755168973604 109.08389010233299 104.12824106038599 C 0.0 **** -0.24
1862 H 37.14741427957128 109.29327219979663 105.16168276646988 H 0.0 **** 0.06
1863 H 36.616052074185006 109.39190322773334 103.46606983628061 H 0.0 **** 0.06
1864 H 37.60509500695392 108.01588033945248 104.01028689451084 H 0.0 **** 0.06
1865 H 38.33094545705811 109.63619043640603 103.87755577698823 H 0.0 **** 0.06
1866 C 103.92528853160054 28.50813027824052 113.08634723624104 C 0.0 **** -0.24
1867 H 104.11082833875626 28.15123280495156 112.0729422003476 H 0.0 **** 0.06
1868 H 102.95295190890758 28.151649502466235 113.42481354839836 H 0.0 **** 0.06
1869 H 103.9376124384527 29.59751182349858 113.09456063945532 H 0.0 **** 0.06
1870 H 104.70301113160778 28.13112185168329 113.75074228083054 H 0.0 **** 0.06
1871 C 111.2078200990586 51.579797213168035 67.52039686896858 C 0.0 **** -0.24
1872 H 110.42127123737026 51.73461269028937 68.25872578664551 H 0.0 **** 0.06
1873 H 111.60708705474717 52.54442643902156 67.20712716643625 H 0.0 **** 0.06
1874 H 110.79701423246797 51.0569795139603 66.65675183732775 H 0.0 **** 0.06
1875 H 112.00604841000752 50.98147227350111 67.96074268655059 H 0.0 **** 0.06
1876 C 101.9107482221433 62.61729525793707 8.23084411035316 C 0.0 **** -0.24
1877 H 102.19819266206389 63.55238611754483 8.711157873062323 H 0.0 **** 0.06
1878 H 102.79957896411764 62.0090976234366 8.058167543214719 H 0.0 **** 0.06
1879 H 101.42622947547193 62.8317379808086 7.278919014140243 H 0.0 **** 0.06
1880 H 101.21929839160072 62.0750008218652 8.876541785704543 H 0.0 **** 0.06
1881 C 65.84738565250308 98.57151898808816 85.94485822231772 C 0.0 **** -0.24
1882 H 66.7361933451729 97.94277722614211 85.99586042476096 H 0.0 **** 0.06
1883 H 65.6160922256009 98.95345772427066 86.93914374443861 H 0.0 **** 0.06
1884 H 65.00736859177685 97.98396343497609 85.57572503854266 H 0.0 **** 0.06
1885 H 66.03141625335998 99.40606385370029 85.26708152534056 H 0.0 **** 0.06
1886 C 95.61527464016321 24.42731660289364 3.6154084715414854 C 0.0 **** -0.24
1887 H 96.22591714769598 23.787806278007263 2.977349793842677 H 0.0 **** 0.06
1888 H 96.22506655379779 25.245195401767553 3.999706099271691 H 0.0 **** 0.06
1889 H 95.22413224943972 23.841752027938835 4.447432098060631 H 0.0 **** 0.06
1890 H 94.78644517465295 24.833124589485323 3.035454902243032 H 0.0 **** 0.06
1891 C 3.7229136753758176 28.776502574612323 33.00103751494649 C 0.0 **** -0.24
1892 H 3.948176756043086 28.4144699035418 31.998212800628664 H 0.0 **** 0.06
1893 H 2.6781584814866903 29.086640342528227 33.04830069239679 H 0.0 **** 0.06
1894 H 4.365099951074193 29.625261473858487 33.23391862477814 H 0.0 **** 0.06
1895 H 3.898277033078502 27.97840479290639 33.7228783668653 H 0.0 **** 0.06
1896 C 38.27467576909561 15.504184887396889 96.62261843647354 C 0.0 **** -0.24
1897 H 37.51859858929555 15.1797568646669 97.33681606095337 H 0.0 **** 0.06
1898 H 38.88323125051306 16.29066057829189 97.06941793420108 H 0.0 **** 0.06
1899 H 37.786372231756445 15.888565748236374 95.72721263229187 H 0.0 **** 0.06
1900 H 38.91000677350627 14.660074472600598 96.35640871477571 H 0.0 **** 0.06
1901 C 85.74215722025073 86.55235829077456 7.524245451111653 C 0.0 **** -0.24
1902 H 86.64027948518968 86.26522180289463 6.977714967446417 H 0.0 **** 0.06
1903 H 84.88135217841211 86.02716308102772 7.109441557923418 H 0.0 **** 0.06
1904 H 85.59027238536542 87.62791624609196 7.434525738804723 H 0.0 **** 0.06
1905 H 85.85717173217881 86.28796545489539 8.575962480175349 H 0.0 **** 0.06
1906 C 23.3880710210627 59.863775928268694 24.407864733896815 C 0.0 **** -0.24
1907 H 24.16598032810751 60.57321053499021 24.124756573154684 H 0.0 **** 0.06
1908 H 23.573453185151607 59.50775994595875 25.421491219983693 H 0.0 **** 0.06
1909 H 23.399065985150713 59.018527730484834 23.71819287785388 H 0.0 **** 0.06
1910 H 22.41531478744841 60.354101013930176 24.366389548381278 H 0.0 **** 0.06
1911 C 43.05570959577278 13.40684188619582 95.98277244371319 C 0.0 **** -0.24
1912 H 42.62591333792088 12.52472479563437 96.45890399285236 H 0.0 **** 0.06
1913 H 42.45632838447226 14.282117370938721 96.23335485840143 H 0.0 **** 0.06
1914 H 43.063670339763675 13.268437882014524 94.90188092249478 H 0.0 **** 0.06
1915 H 44.075721271810906 13.550497698065612 96.33837152834195 H 0.0 **** 0.06
1916 C 92.14558296820177 61.030831275327756 17.240785770540384 C 0.0 **** -0.24
1917 H 92.67406115518726 60.078705606294236 17.19650199462461 H 0.0 **** 0.06
1918 H 91.83064680401857 61.22360280500213 18.267434216654124 H 0.0 **** 0.06
1919 H 91.2691950947326 60.99122265796446 16.5928976014566 H 0.0 **** 0.06
1920 H 92.80765883455564 61.82991414076409 16.906935971042742 H 0.0 **** 0.06
1921 C 65.52825481562874 73.91004267810908 31.145387103530517 C 0.0 **** -0.24
1922 H 65.23582735939445 73.87991063718 32.1950488601355 H 0.0 **** 0.06
1923 H 65.92023751580405 74.89879879701607 30.90539856499656 H 0.0 **** 0.06
1924 H 64.66012269198391 73.70017561946625 30.52013434008056 H 0.0 **** 0.06
1925 H 66.29798383002073 73.15974076445649 30.962100743931856 H 0.0 **** 0.06
1926 C 43.564313948044074 46.99205084340764 49.1360155404777 C 0.0 **** -0.24
1927 H 42.8356768283171 46.465008907975545 48.51858829579291 H 0.0 **** 0.06
1928 H 43.85379466943895 46.358698783499705 49.974138797198535 H 0.0 **** 0.06
1929 H 43.12073434082428 47.91431152699923 49.51197557846072 H 0.0 **** 0.06
1930 H 44.443608442689786 47.22861627268452 48.53771671418224 H 0.0 **** 0.06
1931 C 103.61467116728014 59.094538437565575 66.43192788275701 C 0.0 **** -0.24
1932 H 103.12513308918321 59.584974768251186 67.27300231474453 H 0.0 **** 0.06
1933 H 103.34397458814334 59.60421698654113 65.5067426338141 H 0.0 **** 0.06
1934 H 103.29414612974898 58.05408969521852 66.38085287655389 H 0.0 **** 0.06
1935 H 104.69543086204504 59.134872300251686 66.5671137059152 H 0.0 **** 0.06
1936 C 38.69933350485178 91.24675896315267 87.23113987694535 C 0.0 **** -0.24
1937 H 39.77748075696161 91.26931586949996 87.3882678956908 H 0.0 **** 0.06
1938 H 38.36457298487983 92.22049158687986 86.87151116794152 H 0.0 **** 0.06
1939 H 38.19946886281372 91.01514819320118 88.17142776863402 H 0.0 **** 0.06
1940 H 38.45626822334208 90.48336769150893 86.49189187889124 H 0.0 **** 0.06
1941 C 39.05529111747671 15.186721350454349 4.2278431416139455 C 0.0 **** -0.24
1942 H 38.82075321255013 15.117881254049678 5.289808081284548 H 0.0 **** 0.06
1943 H 38.73375165404397 16.156000820210892 3.8461596813749424 H 0.0 **** 0.06
1944 H 38.536415270861994 14.392993376860233 3.6895185494054203 H 0.0 **** 0.06
1945 H 40.13087410109628 15.077979386362301 4.0851930846791475 H 0.0 **** 0.06
1946 C 34.2024527394926 58.968286060821185 14.86233205841853 C 0.0 **** -0.24
1947 H 33.11507067574627 58.91440454455136 14.801919873295446 H 0.0 **** 0.06
1948 H 34.51458061975879 60.01325199933518 14.862313710152762 H 0.0 **** 0.06
1949 H 34.63846051225798 58.45862304472797 14.00301582062346 H 0.0 **** 0.06
1950 H 34.53935696804419 58.487263710775096 15.779764620791553 H 0.0 **** 0.06
1951 C 62.50736898374396 60.66947861358841 43.42158308125687 C 0.0 **** -0.24
1952 H 62.30817810146101 61.685683475372514 43.08136076376502 H 0.0 **** 0.06
1953 H 63.3565167993026 60.262362997490555 42.87180178771763 H 0.0 **** 0.06
1954 H 61.62961248547714 60.048520107955426 43.24760746101731 H 0.0 **** 0.06
1955 H 62.737645723703565 60.682249056901014 44.486994787474885 H 0.0 **** 0.06
1956 C 55.735682437166275 61.67136003703176 107.40490878321309 C 0.0 **** -0.24
1957 H 55.53124055416663 61.03170208763542 106.54600785142726 H 0.0 **** 0.06
1958 H 55.76130013890139 62.71253874528455 107.08474142917606 H 0.0 **** 0.06
1959 H 56.69931511265651 61.399803717880076 107.83765105216808 H 0.0 **** 0.06
1960 H 54.95254208828803 61.53911674028534 108.15139150547337 H 0.0 **** 0.06
1961 C 1.577548054380216 1.06503018444441 43.65694099162542 C 0.0 **** -0.24
1962 H 0.6484322526582531 1.386278913560048 44.12823671844268 H 0.0 **** 0.06
1963 H 2.3578588369037448 0.9779111075742861 44.41419260484247 H 0.0 **** 0.06
1964 H 1.8773300908665504 1.7989431182978564 42.90892689703554 H 0.0 **** 0.06
1965 H 1.4257345256532403 0.0976679237762994 43.17732290717484 H 0.0 **** 0.06
1966 C 43.37104743756902 109.93173595553259 74.16541232593637 C 0.0 **** -0.24
1967 H 42.53564927731628 109.64331426325066 73.52705081182921 H 0.0 **** 0.06
1968 H 43.01552041361498 110.08089655152583 75.18469843737591 H 0.0 **** 0.06
1969 H 43.809261899528224 110.85821938118193 73.79326430879257 H 0.0 **** 0.06
1970 H 44.1249595644951 109.1440151268265 74.15511641936793 H 0.0 **** 0.06
1971 C 85.22082586639951 109.76076733903116 42.544586079815 C 0.0 **** -0.24
1972 H 86.14948477184828 110.03332854687297 43.045939823792395 H 0.0 **** 0.06
1973 H 84.38733537463163 109.8774070179462 43.23672500934754 H 0.0 **** 0.06
1974 H 85.27804645602006 108.7235655736526 42.213847699999384 H 0.0 **** 0.06
1975 H 85.07120966880237 110.40971034289609 41.68118027993522 H 0.0 **** 0.06
1976 C 87.69841641042984 79.4973556895032 92.35699197618861 C 0.0 **** -0.24
1977 H 87.32284180008747 79.2710290928882 93.35455325170075 H 0.0 **** 0.06
1978 H 87.37292727504018 80.4954916511123 92.06344982400124 H 0.0 **** 0.06
1979 H 87.3090386244591 78.76536222229566 91.64790722886049 H 0.0 **** 0.06
1980 H 88.78745855556886 79.45538370106772 92.36087715736988 H 0.0 **** 0.06
1981 C 12.320722021359927 102.42533929607657 88.31312600690484 C 0.0 **** -0.24
1982 H 11.340827662885346 102.10104269310204 87.96377335670903 H 0.0 **** 0.06
1983 H 12.629569333956908 101.80428086858174 89.15535486815737 H 0.0 **** 0.06
1984 H 12.267450650481805 103.46629015257122 88.62955125997176 H 0.0 **** 0.06
1985 H 13.04524844988208 102.32753458842888 87.50410357215823 H 0.0 **** 0.06
1986 C 33.81575888569779 51.23939213196732 17.604947017789303 C 0.0 **** -0.24
1987 H 32.837794662794806 51.644539626812474 17.863833113578686 H 0.0 **** 0.06
1988 H 34.52468522407332 52.05707605408325 17.47350111706757 H 0.0 **** 0.06
1989 H 33.738881319763635 50.67272877707816 16.67618056557505 H 0.0 **** 0.06
1990 H 34.16056869520003 50.58258802720151 18.40374870315858 H 0.0 **** 0.06
1991 C 78.1581067066302 26.873581414534044 12.553368705405632 C 0.0 **** -0.24
1992 H 79.04207012817517 26.68799170405117 11.943954533669555 H 0.0 **** 0.06
1993 H 78.14876284685027 27.91698226605297 12.871714467095188 H 0.0 **** 0.06
1994 H 78.17897794966282 26.226170123900772 13.430034871702475 H 0.0 **** 0.06
1995 H 77.26274179631532 26.664583770724505 11.967636483643886 H 0.0 **** 0.06
1996 C 52.37289967965416 91.07124190495071 52.385602231199584 C 0.0 **** -0.24
1997 H 51.966335314257314 91.83304754999952 53.05046545501548 H 0.0 **** 0.06
1998 H 51.65325798559294 90.25866267512981 52.282760517250836 H 0.0 **** 0.06
1999 H 53.302416219154814 90.68318989150623 52.802745155997286 H 0.0 **** 0.06
2000 H 52.56839889147074 91.50964495026778 51.40762303328873 H 0.0 **** 0.06
2001 C 26.219396693773305 108.90460419695535 36.59797803824845 C 0.0 **** -0.24
2002 H 26.54139810384143 109.82855677438465 36.1185333264284 H 0.0 **** 0.06
2003 H 25.59323301206298 109.14103024220282 37.458730829012325 H 0.0 **** 0.06
2004 H 27.093440091028327 108.34209029859647 36.927656461155564 H 0.0 **** 0.06
2005 H 25.649202050983988 108.30605942367885 35.88765433143083 H 0.0 **** 0.06
2006 C 45.07304324898627 27.408353354488888 69.29293850464184 C 0.0 **** -0.24
2007 H 44.792940383897985 26.449828588600234 68.85448521185778 H 0.0 **** 0.06
2008 H 45.806689477773034 27.90006577857961 68.65310201664205 H 0.0 **** 0.06
2009 H 45.50455928839796 27.24330631398039 70.27988120924259 H 0.0 **** 0.06
2010 H 44.18862531809134 28.0385183129265 69.38297496056701 H 0.0 **** 0.06
2011 C 6.369512223570865 13.051095477746685 68.29788551408978 C 0.0 **** -0.24
2012 H 6.870477023156212 13.513014700958252 69.14815512364498 H 0.0 **** 0.06
2013 H 6.821431642726395 12.08012315159479 68.09402732435757 H 0.0 **** 0.06
2014 H 6.474060424587378 13.693061389429886 67.42280092559025 H 0.0 **** 0.06
2015 H 5.312056073498951 12.919691487937229 68.5274090196898 H 0.0 **** 0.06
2016 C 33.81953823166839 46.28033135694767 16.826102462455935 C 0.0 **** -0.24
2017 H 33.045355443102224 46.95297125137802 16.458503401096152 H 0.0 **** 0.06
2018 H 34.76476214893886 46.50937282996671 16.333418654252682 H 0.0 **** 0.06
2019 H 33.53753251829765 45.250056079239585 16.610153030992706 H 0.0 **** 0.06
2020 H 33.93041298823266 46.4085613898788 17.903261899429197 H 0.0 **** 0.06
2021 C 90.94991919712265 15.066116120789847 104.31319194854055 C 0.0 **** -0.24
2022 H 91.59147905855541 14.461498858542317 103.67097271024028 H 0.0 **** 0.06
2023 H 90.3878615195631 14.414594922921712 104.98123144456291 H 0.0 **** 0.06
2024 H 90.25787707846267 15.640410534053544 103.69716825273554 H 0.0 **** 0.06
2025 H 91.56521560081772 15.747926831062138 104.90107127237569 H 0.0 **** 0.06
2026 C 28.073175361016155 28.406525207768937 25.140009128728153 C 0.0 **** -0.24
2027 H 27.85733553105203 28.056297080615252 24.130536498559053 H 0.0 **** 0.06
2028 H 28.44016013109365 27.575006886382482 25.742342142534575 H 0.0 **** 0.06
2029 H 27.163183854118245 28.80678324189273 25.58758766586765 H 0.0 **** 0.06
2030 H 28.831679574094068 29.188339166192463 25.09790377894754 H 0.0 **** 0.06
2031 C 112.75256573197538 101.16956567658208 22.244662454490182 C 0.0 **** -0.24
2032 H 112.82223955399141 101.9138660524974 23.03826253863045 H 0.0 **** 0.06
2033 H 112.10405392986458 100.35408736434013 22.56854554092834 H 0.0 **** 0.06
2034 H 113.7462589373523 100.7788257219178 22.024867838468154 H 0.0 **** 0.06
2035 H 112.33674838294571 101.63056476614463 21.349662883680168 H 0.0 **** 0.06
2036 C 26.40725681908691 87.03086588693246 85.61173769883334 C 0.0 **** -0.24
2037 H 27.168278487059695 86.54324514816393 86.22181855278336 H 0.0 **** 0.06
2038 H 26.465207077580203 86.6538435480106 84.5899996921068 H 0.0 **** 0.06
2039 H 26.57741652083689 88.10772997071176 85.61179104944875 H 0.0 **** 0.06
2040 H 25.42042730634961 86.81894051227123 86.02255842529314 H 0.0 **** 0.06
2041 C 50.180762920404476 29.461086382824988 49.280993753809184 C 0.0 **** -0.24
2042 H 50.61938979921189 28.466080114570047 49.35523344909342 H 0.0 **** 0.06
2043 H 49.21578913882584 29.47163366951662 49.7888155437677 H 0.0 **** 0.06
2044 H 50.04226926001081 29.719933333513666 48.23127030631187 H 0.0 **** 0.06
2045 H 50.84599720995192 30.186501771733504 49.74955369620585 H 0.0 **** 0.06
2046 C 94.92705419873471 52.224156267337946 10.512835634985748 C 0.0 **** -0.24
2047 H 95.73406242379552 52.42186177009765 11.218061690756144 H 0.0 **** 0.06
2048 H 94.24693621397832 51.48350734681259 10.936065335343912 H 0.0 **** 0.06
2049 H 95.34423501817403 51.843740310051544 9.580389162677463 H 0.0 **** 0.06
2050 H 94.3817614954478 53.14820916557471 10.316662869148956 H 0.0 **** 0.06
2051 C 2.6936252284555735 57.334486432701155 12.323077479211435 C 0.0 **** -0.24
2052 H 2.2822275621811627 56.74316940546325 11.505397435667476 H 0.0 **** 0.06
2053 H 2.4095949674149324 58.379230754801924 12.196153580336158 H 0.0 **** 0.06
2054 H 3.7801829093641857 57.24997314991535 12.321513727071377 H 0.0 **** 0.06
2055 H 2.302778588391689 56.964216843471135 13.271265717876787 H 0.0 **** 0.06
2056 C 26.963274080003416 90.8155244827422 90.59135183174334 C 0.0 **** -0.24
2057 H 27.242817139176566 90.71306988771363 91.63967204070758 H 0.0 **** 0.06
2058 H 25.88027183006875 90.74536238873233 90.49586939953176 H 0.0 **** 0.06
2059 H 27.4327006232962 90.02067460743336 90.0106995961894 H 0.0 **** 0.06
2060 H 27.299233104801218 91.78406124345452 90.21878677185352 H 0.0 **** 0.06
2061 C 2.41828965057249 104.18790976356735 71.07708279520182 C 0.0 **** -0.24
2062 H 2.6921158153461135 103.13745151402628 70.98015376664648 H 0.0 **** 0.06
2063 H 2.327794603337537 104.44378204535593 72.13338609057882 H 0.0 **** 0.06
2064 H 1.4641377999724625 104.36243720422186 70.57801659053047 H 0.0 **** 0.06
2065 H 3.1868815131916506 104.80804857693897 70.61661356550428 H 0.0 **** 0.06
2066 C 57.10458186133127 113.97986777786369 106.67814540479816 C 0.0 **** -0.24
2067 H 57.16046640740433 114.95023985103056 106.18434733017892 H 0.0 **** 0.06
2068 H 56.06360482357789 113.66667505416041 106.7463625630366 H 0.0 **** 0.06
2069 H 57.52842252439319 114.05693857206931 107.67907882014634 H 0.0 **** 0.06
2070 H 57.66778252481765 113.24633184532267 106.1004070068928 H 0.0 **** 0.06
2071 C 70.06029015007206 37.30878949994445 10.078917993401092 C 0.0 **** -0.24
2072 H 70.36212503333216 37.117076843456914 9.04918282308941 H 0.0 **** 0.06
2073 H 69.08542164142874 36.856225518898555 10.26173434002368 H 0.0 **** 0.06
2074 H 69.99962087249418 38.38481955446838 10.245168331180452 H 0.0 **** 0.06
2075 H 70.79467408407278 36.87776584419248 10.759647324360856 H 0.0 **** 0.06
2076 C 97.80988587171836 32.078306243523514 103.16251591485599 C 0.0 **** -0.24
2077 H 96.92298493031231 31.45765126744449 103.29127418048785 H 0.0 **** 0.06
2078 H 97.88334001487503 32.395272909466655 102.12210100319663 H 0.0 **** 0.06
2079 H 98.69665001845132 31.504252537535308 103.43131555596463 H 0.0 **** 0.06
2080 H 97.73541136951731 32.955235174513945 103.80537417018155 H 0.0 **** 0.06
2081 C 46.76568165234234 109.66444083081313 71.46766898870085 C 0.0 **** -0.24
2082 H 46.31412186117083 110.15226504884158 72.33200045838244 H 0.0 **** 0.06
2083 H 45.98680410655069 109.19905989446916 70.86420576132662 H 0.0 **** 0.06
2084 H 47.4672228344551 108.90221125858068 71.80714449580005 H 0.0 **** 0.06
2085 H 47.29596238614649 110.40566911417217 70.86977557936736 H 0.0 **** 0.06
2086 C 92.73102939441924 8.277827798550177 103.05365718968653 C 0.0 **** -0.24
2087 H 93.37613554500126 8.10896688721401 103.91549798929896 H 0.0 **** 0.06
2088 H 93.32390630996048 8.664614804358564 102.22501353305859 H 0.0 **** 0.06
2089 H 91.9572177914736 9.000623603850485 103.31505241376328 H 0.0 **** 0.06
2090 H 92.26449038952671 7.337240961804596 102.75967869995827 H 0.0 **** 0.06
2091 C 11.198829798143034 88.11490165781426 58.61396558091677 C 0.0 **** -0.24
2092 H 11.331936922822017 87.97856769419774 59.68722375241556 H 0.0 **** 0.06
2093 H 11.968577475587498 88.78819384416116 58.23590111979843 H 0.0 **** 0.06
2094 H 10.214429766912595 88.5431906826424 58.422388690539606 H 0.0 **** 0.06
2095 H 11.279487131026904 87.15022102559328 58.11256030529013 H 0.0 **** 0.06
2096 C 113.90101840054814 46.84250294159136 15.659252183654871 C 0.0 **** -0.24
2097 H 113.68533716693852 47.86473668041583 15.969858581700692 H 0.0 **** 0.06
2098 H 113.6486914033491 46.72221769587145 14.605532524187367 H 0.0 **** 0.06
2099 H 113.30988611902187 46.1490851953952 16.256469014176105 H 0.0 **** 0.06
2100 H 114.96171220314397 46.6355731923652 15.805304755822533 H 0.0 **** 0.06
2101 C 30.44081807623951 17.555193894608294 39.49298771759626 C 0.0 **** -0.24
2102 H 30.46128843169231 16.537992418791532 39.10261911956533 H 0.0 **** 0.06
2103 H 31.448538359026685 17.853134514407316 39.782942518403274 H 0.0 **** 0.06
2104 H 29.784332549712047 17.59707641733712 40.363070619844045 H 0.0 **** 0.06
2105 H 30.06817927975652 18.231578575391154 38.72369411379979 H 0.0 **** 0.06
2106 C 29.45762883365535 51.08691298521296 1.686757057431862 C 0.0 **** -0.24
2107 H 29.62297506523447 50.03235499458822 1.469444977646745 H 0.0 **** 0.06
2108 H 28.6146121007676 51.19025954816334 2.3701704372388406 H 0.0 **** 0.06
2109 H 29.24033242427697 51.61902371956319 0.7601805433013595 H 0.0 **** 0.06
2110 H 30.351699889960628 51.50841178948332 2.145667975987976 H 0.0 **** 0.06
2111 C 84.16186558190805 87.0436664229688 88.51361358654245 C 0.0 **** -0.24
2112 H 83.21197139257862 87.5395602673947 88.71360079630875 H 0.0 **** 0.06
2113 H 84.0567573910904 85.97338803779165 88.69412690715174 H 0.0 **** 0.06
2114 H 84.92946109524064 87.45028175446208 89.17159049982618 H 0.0 **** 0.06
2115 H 84.44649829402363 87.21089565494158 87.47524991957798 H 0.0 **** 0.06
2116 C 13.733078799231617 45.706614747694545 2.5863091005874423 C 0.0 **** -0.24
2117 H 14.459223079794043 45.44983934245465 1.8148770284387865 H 0.0 **** 0.06
2118 H 13.16845302899149 46.58584015549653 2.274241736314238 H 0.0 **** 0.06
2119 H 14.254308742902676 45.921763113362516 3.5185167045599144 H 0.0 **** 0.06
2120 H 13.050530318567429 44.87084621633713 2.7354533384328334 H 0.0 **** 0.06
2121 C 46.50469787514476 102.04212274359334 48.43859588771846 C 0.0 **** -0.24
2122 H 46.90231028410042 102.42379360297664 47.49752556399062 H 0.0 **** 0.06
2123 H 46.91988082109731 101.053254447676 48.633324344608724 H 0.0 **** 0.06
2124 H 45.418927476689475 101.97504146226031 48.37287469085865 H 0.0 **** 0.06
2125 H 46.778984904351745 102.71777538867622 49.24833698470789 H 0.0 **** 0.06
2126 C 94.60474333201643 14.517816856378616 37.8403396998566 C 0.0 **** -0.24
2127 H 93.96755013682929 13.760261233204915 38.296690296758186 H 0.0 **** 0.06
2128 H 94.25328237171038 15.509322974755264 38.127331710654204 H 0.0 **** 0.06
2129 H 94.56785636891115 14.419414160965843 36.7554803505781 H 0.0 **** 0.06
2130 H 95.63140511154097 14.383258220728848 38.18273156655741 H 0.0 **** 0.06
2131 C 58.048681842159425 4.439588671193206 76.21354295851904 C 0.0 **** -0.24
2132 H 58.85934334627453 4.462679168644236 75.4849996651595 H 0.0 **** 0.06
2133 H 58.44435463150485 4.152495415305433 77.18778577312216 H 0.0 **** 0.06
2134 H 57.297265802269365 3.715783689936117 75.89801667315292 H 0.0 **** 0.06
2135 H 57.59402179244144 5.428613700147762 76.28269767253127 H 0.0 **** 0.06
2136 C 27.561912172279406 97.19956633294038 13.609412490083429 C 0.0 **** -0.24
2137 H 28.07368155624812 98.15526321897198 13.726920655538208 H 0.0 **** 0.06
2138 H 27.429564762003537 96.73532062399096 14.587157186449872 H 0.0 **** 0.06
2139 H 28.156306842061753 96.5451379600669 12.972015422742174 H 0.0 **** 0.06
2140 H 26.58638259510073 97.3646426710098 13.150744344251564 H 0.0 **** 0.06
2141 C 83.22543613330424 110.27251009394871 94.73222066819739 C 0.0 **** -0.24
2142 H 82.49438584724163 109.46380452893737 94.76063558591 H 0.0 **** 0.06
2143 H 84.03938168223794 110.00149404798327 94.05956286611828 H 0.0 **** 0.06
2144 H 83.62228783497972 110.43865943509678 95.73394553205051 H 0.0 **** 0.06
2145 H 82.74548997023345 111.18330757527588 94.37524988692564 H 0.0 **** 0.06
2146 C 72.13723257180118 51.624666693124695 24.82343575236257 C 0.0 **** -0.24
2147 H 71.45227249802952 50.79515739947248 24.64659229759266 H 0.0 **** 0.06
2148 H 72.176344251881 51.842819997182886 25.89040432486067 H 0.0 **** 0.06
2149 H 71.78722981959879 52.5049765926956 24.284881137317427 H 0.0 **** 0.06
2150 H 73.1325922635109 51.35526096878115 24.470266967117254 H 0.0 **** 0.06
2151 C 113.1312055456828 25.756688149350566 36.46449993935613 C 0.0 **** -0.24
2152 H 113.66590675175485 24.807270798749585 36.49766446205581 H 0.0 **** 0.06
2153 H 113.17278031992979 26.231074722530295 37.445345244563214 H 0.0 **** 0.06
2154 H 112.09153123929141 25.57774290787637 36.19046985421522 H 0.0 **** 0.06
2155 H 113.59547670910891 26.408009864361844 35.724080559534514 H 0.0 **** 0.06
2156 C 102.65902984596941 80.15486846853422 65.52270422109268 C 0.0 **** -0.24
2157 H 102.71010326252382 81.23501319107717 65.65670568266876 H 0.0 **** 0.06
2158 H 102.11136018480039 79.71100462914303 66.3542476093694 H 0.0 **** 0.06
2159 H 103.66808555384287 79.74543167548057 65.49197036949121 H 0.0 **** 0.06
2160 H 102.14657038271048 79.92802437843632 64.58789322284156 H 0.0 **** 0.06
2161 C 55.94285429340988 61.69990214214167 101.54681895639402 C 0.0 **** -0.24
2162 H 55.33178949426474 60.83187033441243 101.29960823678033 H 0.0 **** 0.06
2163 H 56.9158102007687 61.3671027227127 101.9097638023112 H 0.0 **** 0.06
2164 H 55.446636677312256 62.28402615991857 102.32091305992725 H 0.0 **** 0.06
2165 H 56.0782271277385 62.3143950091565 100.65703794973922 H 0.0 **** 0.06
2166 C 99.33617642495415 46.192955770306874 71.34036509243049 C 0.0 **** -0.24
2167 H 99.00610344833594 45.19768769570278 71.04429281977986 H 0.0 **** 0.06
2168 H 98.53099661180255 46.70017958785162 71.871802780829 H 0.0 **** 0.06
2169 H 99.60292938509704 46.76659207332757 70.45200993964428 H 0.0 **** 0.06
2170 H 100.20627634330006 46.10890947818596 71.9923297917488 H 0.0 **** 0.06
2171 C 75.42424049376609 100.32745367503578 32.39453899527092 C 0.0 **** -0.24
2172 H 74.51313340496125 100.29551599807596 32.9917193635053 H 0.0 **** 0.06
2173 H 75.18544262620748 100.09771439853206 31.35533492913936 H 0.0 **** 0.06
2174 H 76.13369726973994 99.59207994169137 32.775341000190394 H 0.0 **** 0.06
2175 H 75.86429608131408 101.32319181013919 32.45540970020426 H 0.0 **** 0.06
2176 C 36.57404010278333 32.3233003784631 4.522812336205135 C 0.0 **** -0.24
2177 H 35.793065191537266 32.77114519449622 3.907944229774813 H 0.0 **** 0.06
2178 H 36.125161243080754 31.86562666038963 5.404153966622459 H 0.0 **** 0.06
2179 H 37.27847602811306 33.09525184220988 4.832267514584288 H 0.0 **** 0.06
2180 H 37.099197040619856 31.562430685383212 3.944794952793984 H 0.0 **** 0.06
2181 C 45.78550838253324 72.41240522649868 107.07031591516426 C 0.0 **** -0.24
2182 H 45.350772728929996 73.39339851427376 106.87651529496304 H 0.0 **** 0.06
2183 H 45.091452097770684 71.63682415347338 106.74596048290141 H 0.0 **** 0.06
2184 H 45.97909523686309 72.30524248872007 108.13745639863615 H 0.0 **** 0.06
2185 H 46.72139544166765 72.31468532306444 106.51982994081038 H 0.0 **** 0.06
2186 C 37.87646635968392 50.169796104736136 0.03771259357839085 C 0.0 **** -0.24
2187 H 38.941321982339275 50.29165114741268 0.23859181942353302 H 0.0 **** 0.06
2188 H 37.428137711891225 51.14529034479415 -0.15107822329093779 H 0.0 **** 0.06
2189 H 37.39492574425748 49.70893104359749 0.9013234428122416 H 0.0 **** 0.06
2190 H 37.742266689103076 49.532226821271905 -0.8361966797998264 H 0.0 **** 0.06
2191 C 74.55266290232947 52.59388392626164 96.85590421223645 C 0.0 **** -0.24
2192 H 73.67819234841912 52.00209923250543 96.58437205735777 H 0.0 **** 0.06
2193 H 74.8601578188093 52.341977231647604 97.87163574157017 H 0.0 **** 0.06
2194 H 74.3038130364952 53.65366279900985 96.80449393676122 H 0.0 **** 0.06
2195 H 75.36719302454843 52.377604734314616 96.16492771372691 H 0.0 **** 0.06
2196 C 44.390889024778474 53.90687078626474 105.10234620335162 C 0.0 **** -0.24
2197 H 44.34257247352787 54.1584951791559 106.16180796776342 H 0.0 **** 0.06
2198 H 45.09450149193894 53.08593604033167 104.95622186836455 H 0.0 **** 0.06
2199 H 44.72614252726937 54.77656231453136 104.53712916890778 H 0.0 **** 0.06
2200 H 43.40300658868581 53.60552426932779 104.75520347523961 H 0.0 **** 0.06
2201 C 6.499608973381726 58.10517356101718 78.1027035883492 C 0.0 **** -0.24
2202 H 6.234016840551476 57.07981146359441 78.35810109662992 H 0.0 **** 0.06
2203 H 7.574353774528319 58.16887253528958 77.93014445888781 H 0.0 **** 0.06
2204 H 6.223949133663538 58.76743306954421 78.92334269650071 H 0.0 **** 0.06
2205 H 5.968368340018856 58.4052656824324 77.19989983440553 H 0.0 **** 0.06
2206 C 50.26565848290113 92.45624099273573 41.35189283762014 C 0.0 **** -0.24
2207 H 50.98016395291835 93.05478931239821 40.78706243835819 H 0.0 **** 0.06
2208 H 50.46690376993438 92.56094692416053 42.41868552437279 H 0.0 **** 0.06
2209 H 50.36234898671102 91.4090773445431 41.06495067946139 H 0.0 **** 0.06
2210 H 49.25396684293741 92.79902499549638 41.13728703883794 H 0.0 **** 0.06
2211 C 86.27700491626332 55.20872590656742 68.55272704526186 C 0.0 **** -0.24
2212 H 85.5752617026805 54.384260002241234 68.43046121194493 H 0.0 **** 0.06
2213 H 86.1340421664989 55.66416633492608 69.5338719679898 H 0.0 **** 0.06
2214 H 86.10018508978524 55.95471258288029 67.77674619208616 H 0.0 **** 0.06
2215 H 87.29723177472775 54.833427693298916 68.47056876552085 H 0.0 **** 0.06
2216 C 88.63987614619771 76.16649444107031 61.96316687914552 C 0.0 **** -0.24
2217 H 88.75022292165045 76.08221995973332 63.04394433670548 H 0.0 **** 0.06
2218 H 88.9900090643099 75.24821390968691 61.49025627702552 H 0.0 **** 0.06
2219 H 89.22857768525023 77.00966378150261 61.602731758140465 H 0.0 **** 0.06
2220 H 87.59022409642216 76.32454639929753 61.71673499899758 H 0.0 **** 0.06
2221 C 13.729303502144994 43.66603052390201 115.28195468670236 C 0.0 **** -0.24
2222 H 13.358291438527694 43.151993936539625 114.39575214748987 H 0.0 **** 0.06
2223 H 13.80972008930705 42.956755970436745 116.10605866530086 H 0.0 **** 0.06
2224 H 13.039604912942877 44.46450541755159 115.55536143209389 H 0.0 **** 0.06
2225 H 14.710865049949216 44.0903858205331 115.07104935338961 H 0.0 **** 0.06
2226 C 111.5524209041199 31.162889450200396 102.22888949219907 C 0.0 **** -0.24
2227 H 112.05300476186767 31.773543857244817 101.47788315665804 H 0.0 **** 0.06
2228 H 111.00533895847875 30.358198442854473 101.73666460563192 H 0.0 **** 0.06
2229 H 110.8574589723497 31.7813435596006 102.7963927510655 H 0.0 **** 0.06
2230 H 112.29493015834515 30.737841353074373 102.90390923280725 H 0.0 **** 0.06
2231 C 57.631113627609466 95.18440440810349 13.51447693735787 C 0.0 **** -0.24
2232 H 57.812649228632665 95.59233171175651 14.50918228780256 H 0.0 **** 0.06
2233 H 56.55814615550025 95.07083876278014 13.359411764739889 H 0.0 **** 0.06
2234 H 58.11625978552351 94.21232181582465 13.426737618387932 H 0.0 **** 0.06
2235 H 58.03740442556722 95.8622235605535 12.764810046178326 H 0.0 **** 0.06
2236 C 82.88716818493081 44.63983715786517 56.8871636735484 C 0.0 **** -0.24
2237 H 83.25315508919078 43.6395965819971 56.655524019329846 H 0.0 **** 0.06
2238 H 82.83377444844066 45.22841315460997 55.971234656347406 H 0.0 **** 0.06
2239 H 83.56775021758493 45.12152564757693 57.589626400019256 H 0.0 **** 0.06
2240 H 81.89475231923778 44.56890979813676 57.333048915707536 H 0.0 **** 0.06
2241 C 22.364290699896795 102.36061331032064 28.542481574984315 C 0.0 **** -0.24
2242 H 21.295196133316043 102.18273326584129 28.655768881687145 H 0.0 **** 0.06
2243 H 22.57493489850729 103.41875582129873 28.69653670553936 H 0.0 **** 0.06
2244 H 22.676055742853 102.07006977707503 27.53834380060563 H 0.0 **** 0.06
2245 H 22.91161512790937 101.77023883588124 29.277004874631693 H 0.0 **** 0.06
2246 C 28.029207906444626 6.4478791657896295 100.64970223221604 C 0.0 **** -0.24
2247 H 27.04850677468525 5.976698433541145 100.71876443327112 H 0.0 **** 0.06
2248 H 28.57276525043023 6.03053498900988 99.80131206276596 H 0.0 **** 0.06
2249 H 28.5873525671392 6.262216474132316 101.56638121315983 H 0.0 **** 0.06
2250 H 27.90615724973808 7.52263120436956 100.51023454584876 H 0.0 **** 0.06
2251 C 22.65283816344879 65.32409634853315 80.37986850362583 C 0.0 **** -0.24
2252 H 21.93235515248807 66.12540512427302 80.21955018831687 H 0.0 **** 0.06
2253 H 22.897305545231745 65.26281312682579 81.44054642174429 H 0.0 **** 0.06
2254 H 23.557858431420527 65.52910926204595 79.80881988747136 H 0.0 **** 0.06
2255 H 22.22215034455877 64.37783729737009 80.05185267007737 H 0.0 **** 0.06
2256 C 114.06075828400319 113.11960767372624 98.57537002766242 C 0.0 **** -0.24
2257 H 114.56385098960743 114.08498761486099 98.50745138305354 H 0.0 **** 0.06
2258 H 112.99038697109721 113.27719224341641 98.7067545482054 H 0.0 **** 0.06
2259 H 114.454206743109 112.56445470733578 99.42655039284034 H 0.0 **** 0.06
2260 H 114.2358445407333 112.55448436756016 97.66028097945701 H 0.0 **** 0.06
2261 C 66.07174694242525 31.35816594472479 85.08766158466622 C 0.0 **** -0.24
2262 H 64.99060904295368 31.22781876983342 85.04782476016685 H 0.0 **** 0.06
2263 H 66.53701477428544 30.781150721693763 84.28865544216832 H 0.0 **** 0.06
2264 H 66.44402644658942 31.01071700909573 86.05149340214817 H 0.0 **** 0.06
2265 H 66.31522042475507 32.413379288131324 84.96358088447192 H 0.0 **** 0.06
2266 C 98.87304673087165 26.068830083851296 24.244708728802237 C 0.0 **** -0.24
2267 H 99.66633612181853 26.814542675904065 24.199829034152685 H 0.0 **** 0.06
2268 H 99.29224960318388 25.081130143743373 24.053339130827055 H 0.0 **** 0.06
2269 H 98.11903631034964 26.295847334854415 23.49124141738733 H 0.0 **** 0.06
2270 H 98.4142302506786 26.083685482036884 25.233489961896254 H 0.0 **** 0.06
2271 C 17.587259900977415 27.460017013998737 41.28300488736819 C 0.0 **** -0.24
2272 H 18.258812183831935 28.04542301093707 41.911341521887394 H 0.0 **** 0.06
2273 H 17.45819643617213 26.46761100534397 41.71749149871224 H 0.0 **** 0.06
2274 H 18.013034443031017 27.367183980471907 40.28424987127101 H 0.0 **** 0.06
2275 H 16.62029884426491 27.958857572015006 41.22145051653642 H 0.0 **** 0.06
2276 C 108.89811272946409 38.24581490895358 82.50071548023345 C 0.0 **** -0.24
2277 H 108.1427822785792 37.87607284698723 81.80713543281871 H 0.0 **** 0.06
2278 H 109.3570774802589 39.14648084499703 82.0918807532675 H 0.0 **** 0.06
2279 H 109.66237443712139 37.48189837866758 82.646383512086 H 0.0 **** 0.06
2280 H 108.4307220671622 38.47795164325254 83.45735231048673 H 0.0 **** 0.06
2281 C 23.41043201804535 81.29457323540575 53.35321998434079 C 0.0 **** -0.24
2282 H 24.303737216541236 80.68993172893994 53.200043729006 H 0.0 **** 0.06
2283 H 22.676194535572925 81.05895128899527 52.58314067297628 H 0.0 **** 0.06
2284 H 23.672300162989057 82.3512714955018 53.29378555885455 H 0.0 **** 0.06
2285 H 22.98960954632999 81.07972296444058 54.33521964448929 H 0.0 **** 0.06
2286 C 97.80151196201663 38.27591521757168 58.420553518803985 C 0.0 **** -0.24
2287 H 98.04741587362652 37.643505368906744 59.273499351637085 H 0.0 **** 0.06
2288 H 96.86248243400885 37.939907204004015 57.97869401886747 H 0.0 **** 0.06
2289 H 98.5964161472861 38.21000800995381 57.678078539243856 H 0.0 **** 0.06
2290 H 97.69782922054607 39.30874686020667 58.75232182720953 H 0.0 **** 0.06
2291 C 45.089661487528815 98.20729460306713 53.155594423096744 C 0.0 **** -0.24
2292 H 45.165338092945774 97.12612069826184 53.03354248334577 H 0.0 **** 0.06
2293 H 44.40971857807324 98.60953850815474 52.40368544343232 H 0.0 **** 0.06
2294 H 46.07512843823298 98.65572157189987 53.031595759080034 H 0.0 **** 0.06
2295 H 44.70874554441349 98.43523911404809 54.150838547845694 H 0.0 **** 0.06
2296 C 16.358750392418546 6.629327968237364 67.9012138761916 C 0.0 **** -0.24
2297 H 15.600778542734712 5.912447763064224 68.21841894385636 H 0.0 **** 0.06
2298 H 16.464469466428106 7.405590701270116 68.65832954585801 H 0.0 **** 0.06
2299 H 16.056475637491005 7.081876153825652 66.95637594771978 H 0.0 **** 0.06
2300 H 17.311582937533224 6.1160137955036 67.77062952034004 H 0.0 **** 0.06
2301 C 57.13749686578663 37.83108679290075 30.568211698729044 C 0.0 **** -0.24
2302 H 57.05604348595952 36.97008143284637 31.23199532144548 H 0.0 **** 0.06
2303 H 57.47114840120486 38.69844142514535 31.1390717769591 H 0.0 **** 0.06
2304 H 56.164762218380474 38.04041512071683 30.12275740096345 H 0.0 **** 0.06
2305 H 57.859919587967894 37.61536265639916 29.78022240123977 H 0.0 **** 0.06
2306 C 95.05534729731107 62.198293408130525 81.72397195126379 C 0.0 **** -0.24
2307 H 94.21296582304313 61.522163059046505 81.5796330168443 H 0.0 **** 0.06
2308 H 95.58650936639731 61.928437990993714 82.63621994948664 H 0.0 **** 0.06
2309 H 94.68881929336362 63.22130564236342 81.80479711315895 H 0.0 **** 0.06
2310 H 95.73211641553235 62.12116669561543 80.87207015182183 H 0.0 **** 0.06
2311 C 85.03516627579543 98.69940419534302 93.90368306271861 C 0.0 **** -0.24
2312 H 85.69501434790429 99.56722602493869 93.88984896601977 H 0.0 **** 0.06
2313 H 84.32043444048033 98.79973998092771 94.72105980550727 H 0.0 **** 0.06
2314 H 85.62695115844238 97.79562425608322 94.04577098554903 H 0.0 **** 0.06
2315 H 84.49777508512055 98.63770574049292 92.95679467171205 H 0.0 **** 0.06
2316 C 32.18397369934537 94.49774754139793 7.016441699461538 C 0.0 **** -0.24
2317 H 32.00565541981197 93.45321021118843 7.269496717810398 H 0.0 **** 0.06
2318 H 31.57318681537916 94.7722917863058 6.15655660305282 H 0.0 **** 0.06
2319 H 33.2374560744459 94.63878360073767 6.774213943359499 H 0.0 **** 0.06
2320 H 31.91866903877016 95.12718571772689 7.866452658194305 H 0.0 **** 0.06
2321 C 33.26966613232088 112.3730169173324 34.414468167457656 C 0.0 **** -0.24
2322 H 33.60740164135248 111.34697454212107 34.274124893254594 H 0.0 **** 0.06
2323 H 33.89432527590604 112.86214188934022 35.162926821776864 H 0.0 **** 0.06
2324 H 32.23276560680628 112.37123169268958 34.75126438988269 H 0.0 **** 0.06
2325 H 33.343813434078086 112.91255137101663 33.46998029758518 H 0.0 **** 0.06
2326 C 12.493632560265752 91.48678549425388 108.13959718440661 C 0.0 **** -0.24
2327 H 12.569080209722188 92.49174631823121 107.72416132222286 H 0.0 **** 0.06
2328 H 11.51131586874341 91.353362562084 108.59205022772824 H 0.0 **** 0.06
2329 H 13.26525358252232 91.34875131193911 108.89725089077622 H 0.0 **** 0.06
2330 H 12.630960234444217 90.75375425811853 107.34425391981638 H 0.0 **** 0.06
2331 C 15.262547803979885 29.830356821908026 67.82381070485926 C 0.0 **** -0.24
2332 H 14.624102181347212 30.390788669822427 67.14079541159752 H 0.0 **** 0.06
2333 H 15.614903245910568 30.491749754085845 68.61580226301305 H 0.0 **** 0.06
2334 H 16.11616106555371 29.429151569805924 67.27826762649299 H 0.0 **** 0.06
2335 H 14.693051376923961 29.010302742534577 68.26126434244854 H 0.0 **** 0.06
2336 C 107.03750064757087 54.90697903481376 4.521077643699186 C 0.0 **** -0.24
2337 H 106.37876124902998 54.19533516703174 4.023520657005591 H 0.0 **** 0.06
2338 H 107.40539236432161 55.63066721663737 3.794253310623162 H 0.0 **** 0.06
2339 H 107.88067609152546 54.374144111246586 4.962750342796994 H 0.0 **** 0.06
2340 H 106.48609924585958 55.42624171221619 5.304684878407642 H 0.0 **** 0.06
2341 C 11.02595352778394 5.79438536564612 48.11473760790108 C 0.0 **** -0.24
2342 H 11.84350784531469 6.406199853701928 47.732041142228525 H 0.0 **** 0.06
2343 H 11.003858446333595 5.858621978618631 49.20334824039895 H 0.0 **** 0.06
2344 H 11.176938932647772 4.7574791453220815 47.81424890409619 H 0.0 **** 0.06
2345 H 10.081041784879915 6.156800850051786 47.70977665390501 H 0.0 **** 0.06
2346 C 48.32166722071206 51.125735337742086 48.65827006600409 C 0.0 **** -0.24
2347 H 48.484540574985495 50.10260274914221 48.31886093994348 H 0.0 **** 0.06
2348 H 49.13032322408354 51.418975624739765 49.32830603491851 H 0.0 **** 0.06
2349 H 47.37037905739581 51.185769787484126 49.18613387194483 H 0.0 **** 0.06
2350 H 48.30262091147403 51.79433164532034 47.79713719763765 H 0.0 **** 0.06
2351 C 77.91060649627485 18.958457649545977 99.52484779992128 C 0.0 **** -0.24
2352 H 77.62635287742245 17.938038299810586 99.78295013892385 H 0.0 **** 0.06
2353 H 77.64606754259273 19.626139948485445 100.3453531901373 H 0.0 **** 0.06
2354 H 77.38386109223683 19.26479203996911 98.62192588329083 H 0.0 **** 0.06
2355 H 78.98606026986883 19.00235654276463 99.35194134984361 H 0.0 **** 0.06
2356 C 89.64190113634953 88.69026842943458 21.58001857067751 C 0.0 **** -0.24
2357 H 89.95520588789356 87.70990090665825 21.219951557407626 H 0.0 **** 0.06
2358 H 88.87765535228465 89.09281767813548 20.914571288377317 H 0.0 **** 0.06
2359 H 90.49964784960412 89.36225705469894 21.59705935472914 H 0.0 **** 0.06
2360 H 89.23481766904428 88.5941345775137 22.586475165144577 H 0.0 **** 0.06
2361 C 72.47241740815379 53.81796534405231 78.76059404059737 C 0.0 **** -0.24
2362 H 72.49210501474914 54.16161797455186 77.72617978881578 H 0.0 **** 0.06
2363 H 71.66091113612585 53.10147637446275 78.8897672129446 H 0.0 **** 0.06
2364 H 72.31527882862977 54.669110952127085 79.42320794044412 H 0.0 **** 0.06
2365 H 73.4220720722187 53.34074700752973 79.00265237339102 H 0.0 **** 0.06
2366 C 65.89551185857886 86.25738410211892 4.270163608503026 C 0.0 **** -0.24
2367 H 65.38124961149924 86.3527453497574 3.3141374079530763 H 0.0 **** 0.06
2368 H 66.97384530309 86.28478652918297 4.106457250750443 H 0.0 **** 0.06
2369 H 65.62364199280046 85.31138262463786 4.736867424550159 H 0.0 **** 0.06
2370 H 65.60582813522774 87.08188701535886 4.922161983971968 H 0.0 **** 0.06
2371 C 100.60608774835882 29.35873587011571 94.29623284230502 C 0.0 **** -0.24
2372 H 101.16753969273921 29.8385562473799 95.09880231436966 H 0.0 **** 0.06
2373 H 100.4509560401423 28.307198686419113 94.540077719554 H 0.0 **** 0.06
2374 H 101.16582178827215 29.437378935749507 93.3647187114851 H 0.0 **** 0.06
2375 H 99.64053222750545 29.852654676782493 94.18334194987128 H 0.0 **** 0.06
2376 C 113.88447210325063 105.11908911248412 67.7855648593265 C 0.0 **** -0.24
2377 H 114.66178766898048 104.36057436887467 67.69067821340906 H 0.0 **** 0.06
2378 H 113.8512058667452 105.47727292768315 68.81496581187044 H 0.0 **** 0.06
2379 H 112.92072778083366 104.68503945340302 67.51979557327188 H 0.0 **** 0.06
2380 H 114.10565114574564 105.95095093050526 67.11749356702465 H 0.0 **** 0.06
2381 C 58.707475731620505 56.69991808425779 37.908661068979306 C 0.0 **** -0.24
2382 H 58.34027559130605 55.674251235744926 37.90889453085206 H 0.0 **** 0.06
2383 H 58.329929256922966 57.22164584897013 38.787698790533774 H 0.0 **** 0.06
2384 H 58.36223520070054 57.209518878379924 37.00806978235741 H 0.0 **** 0.06
2385 H 59.79699611021687 56.69569155784721 37.9280517379128 H 0.0 **** 0.06
2386 C 50.093467642841006 0.996174188458923 59.98146157764572 C 0.0 **** -0.24
2387 H 50.40214275691034 0.6713806324631975 58.98775116640691 H 0.0 **** 0.06
2388 H 49.304054930170025 0.3405531415815659 60.349594964618234 H 0.0 **** 0.06
2389 H 49.722532483650866 2.0197815550016003 59.929686895354706 H 0.0 **** 0.06
2390 H 50.9464113592654 0.9531015066388449 60.65820471356001 H 0.0 **** 0.06
2391 C 16.02885236307128 85.24001197527707 99.8920748842404 C 0.0 **** -0.24
2392 H 15.103803687716947 84.75637975768836 100.20830655029101 H 0.0 **** 0.06
2393 H 16.377210822069742 85.90723188814252 100.680098673721 H 0.0 **** 0.06
2394 H 15.84560502379071 85.81455037031878 98.98337104133128 H 0.0 **** 0.06
2395 H 16.785740924733574 84.48077570967337 99.69583641496189 H 0.0 **** 0.06
2396 C 73.91346126285175 35.091679166890344 72.3351065995557 C 0.0 **** -0.24
2397 H 74.83410113189689 35.67600538550789 72.30748865002711 H 0.0 **** 0.06
2398 H 73.43730179797895 35.11982157568792 71.35485319312174 H 0.0 **** 0.06
2399 H 73.23809490039874 35.51292127173093 73.07966345424897 H 0.0 **** 0.06
2400 H 74.14604849434046 34.060229834173185 72.5974249816766 H 0.0 **** 0.06
2401 C 26.853556042272828 112.7947135645959 79.97961754683917 C 0.0 **** -0.24
2402 H 26.95843692467306 113.56183593049826 80.74744622794992 H 0.0 **** 0.06
2403 H 25.848434832672737 112.83693984718394 79.55963556128074 H 0.0 **** 0.06
2404 H 27.02237399568778 111.81289122045155 80.42205165955889 H 0.0 **** 0.06
2405 H 27.585101735737638 112.9684011221388 79.1905661702072 H 0.0 **** 0.06
2406 C 27.587948724762647 14.850148496190613 88.43447196742397 C 0.0 **** -0.24
2407 H 27.948242544414455 14.8230854759707 87.40661524112207 H 0.0 **** 0.06
2408 H 28.279100049409884 14.304150511185554 89.0768430598526 H 0.0 **** 0.06
2409 H 26.60188413760607 14.38714966728837 88.48516056939107 H 0.0 **** 0.06
2410 H 27.520520157294477 15.885244724332281 88.76833227184437 H 0.0 **** 0.06
2411 C 42.72808640003166 80.7374368788685 81.12080913391074 C 0.0 **** -0.24
2412 H 42.03554565951083 80.1396296809994 80.52830645224074 H 0.0 **** 0.06
2413 H 43.661240948580314 80.86326131134459 80.57098243280677 H 0.0 **** 0.06
2414 H 42.927004642998554 80.23146003592552 82.06567924975924 H 0.0 **** 0.06
2415 H 42.2873581413354 81.7153379691556 81.31751621967668 H 0.0 **** 0.06
2416 C 15.883409980614658 31.580127197638262 39.69113742436198 C 0.0 **** -0.24
2417 H 15.078895672647263 31.888092699072445 40.35930772980001 H 0.0 **** 0.06
2418 H 16.249334594014897 30.597969013525926 39.99184505913152 H 0.0 **** 0.06
2419 H 16.697241910831167 32.30352671840467 39.744731262953735 H 0.0 **** 0.06
2420 H 15.507548090022908 31.531175398778487 38.66940796598287 H 0.0 **** 0.06
2421 C 39.99041208981427 62.215180274089875 50.906328885125134 C 0.0 **** -0.24
2422 H 39.02671782550331 62.33045418482695 51.40342636180185 H 0.0 **** 0.06
2423 H 40.729044814865006 61.85773019095876 51.62397134784598 H 0.0 **** 0.06
2424 H 40.309404922187184 63.17786266084963 50.50611546413123 H 0.0 **** 0.06
2425 H 39.8956242397625 61.49668881243102 50.092257741347936 H 0.0 **** 0.06
2426 C 10.676982190580503 63.63161033379656 22.73191224809288 C 0.0 **** -0.24
2427 H 10.403303392477767 63.182416231292635 23.686095182951583 H 0.0 **** 0.06
2428 H 11.759477662885814 63.75770970935214 22.687763161467135 H 0.0 **** 0.06
2429 H 10.194582478662852 64.60419600578264 22.635906163207313 H 0.0 **** 0.06
2430 H 10.353394611523697 62.98306948761706 21.918188482221783 H 0.0 **** 0.06
2431 C 111.1290826040071 88.64781768266096 67.87764921578986 C 0.0 **** -0.24
2432 H 111.03635469880732 87.61235600212801 68.20303378140551 H 0.0 **** 0.06
2433 H 110.17941652502961 88.98603934812502 67.46377729582218 H 0.0 **** 0.06
2434 H 111.90497064704064 88.72018609671953 67.11389974720186 H 0.0 **** 0.06
2435 H 111.399184919302 89.2727032820236 68.72885323038378 H 0.0 **** 0.06
2436 C 63.829036368697345 85.84910625754645 19.162829308840116 C 0.0 **** -0.24
2437 H 63.89723164404219 86.85029114773533 19.58659656666407 H 0.0 **** 0.06
2438 H 63.40341082047455 85.16993601897701 19.901765878515107 H 0.0 **** 0.06
2439 H 64.82499616676417 85.50358906435906 18.883037262464455 H 0.0 **** 0.06
2440 H 63.190717263581945 85.87154961431679 18.27900431104962 H 0.0 **** 0.06
2441 C 37.830667919936985 52.653539131260715 64.7831669375131 C 0.0 **** -0.24
2442 H 37.95177036772728 51.98177796211341 65.63294201346696 H 0.0 **** 0.06
2443 H 38.81283467526072 52.94891128105143 64.41173132807307 H 0.0 **** 0.06
2444 H 37.279489125445906 53.539607984719446 65.09646778183725 H 0.0 **** 0.06
2445 H 37.28137129856887 52.144058146436485 63.99192117278875 H 0.0 **** 0.06
2446 C 84.80623647072213 38.003374742371875 1.0713400530685817 C 0.0 **** -0.24
2447 H 84.33148631635508 38.640598736800314 0.32506165903951967 H 0.0 **** 0.06
2448 H 85.4490692758884 37.27767105084911 0.5726330063171048 H 0.0 **** 0.06
2449 H 84.03938316730354 37.47859362053276 1.6419409581618822 H 0.0 **** 0.06
2450 H 85.40396969277407 38.61702050632749 1.7448438681008582 H 0.0 **** 0.06
2451 C 11.843045978820271 28.19102658191383 5.718598642390617 C 0.0 **** -0.24
2452 H 10.769522914221284 28.166636876688813 5.906263064687224 H 0.0 **** 0.06
2453 H 12.374073379334675 28.322440537755085 6.661967546322842 H 0.0 **** 0.06
2454 H 12.076515569949038 29.021186274419506 5.051055043462384 H 0.0 **** 0.06
2455 H 12.151936110408968 27.2547195008857 5.254647732180487 H 0.0 **** 0.06
2456 C 33.4841507920151 106.2796804160815 114.91596988527915 C 0.0 **** -0.24
2457 H 32.782783096065856 105.9636620600114 115.68754830114358 H 0.0 **** 0.06
2458 H 33.9459665131689 105.40228340529569 114.46381698261138 H 0.0 **** 0.06
2459 H 34.255294655599954 106.90783805328147 115.36184842902264 H 0.0 **** 0.06
2460 H 32.95088412075745 106.84609521834489 114.15159133953642 H 0.0 **** 0.06
2461 C 75.19925072167325 72.22725373508067 89.85899546264108 C 0.0 **** -0.24
2462 H 76.19536361651336 72.07333205849642 90.27497120903138 H 0.0 **** 0.06
2463 H 75.2119015367484 71.99889946830834 88.79258516571176 H 0.0 **** 0.06
2464 H 74.90236675599759 73.26670103497791 90.0048956912998 H 0.0 **** 0.06
2465 H 74.48937121833698 71.572316712334 90.36361522797122 H 0.0 **** 0.06
2466 C 112.8528011167875 101.95865727500252 106.21432341588753 C 0.0 **** -0.24
2467 H 113.2645105826687 101.20827549971409 105.5389545572969 H 0.0 **** 0.06
2468 H 112.05608094280532 101.51319425612168 106.81005508112769 H 0.0 **** 0.06
2469 H 112.45242997996692 102.78927857424993 105.63396774576917 H 0.0 **** 0.06
2470 H 113.64047744604916 102.32223473961035 106.87447870077321 H 0.0 **** 0.06
2471 C 91.79485273804897 103.60175366336205 81.7170053577355 C 0.0 **** -0.24
2472 H 91.92366109422824 103.71986846510336 80.64075543416139 H 0.0 **** 0.06
2473 H 92.49598300395391 104.25268126854233 82.23968516306482 H 0.0 **** 0.06
2474 H 91.98403085379422 102.56479467073493 81.9932664695337 H 0.0 **** 0.06
2475 H 90.77488983407443 103.87103909900762 81.99198827140833 H 0.0 **** 0.06
2476 C 13.53390781536331 101.05259515931112 112.90746158892426 C 0.0 **** -0.24
2477 H 13.957975538223518 100.51218252562279 112.06135445187022 H 0.0 **** 0.06
2478 H 12.49724326692089 101.31017070704807 112.69105689637546 H 0.0 **** 0.06
2479 H 14.107231698282995 101.9631146149069 113.080330248583 H 0.0 **** 0.06
2480 H 13.57493519560753 100.42354824319803 113.7968593082275 H 0.0 **** 0.06
2481 C 51.376500854817294 95.72523745312098 71.78576626035226 C 0.0 **** -0.24
2482 H 50.34984041589875 95.38051264228734 71.90797380910573 H 0.0 **** 0.06
2483 H 52.04823687075621 95.07059654077725 72.34264116259578 H 0.0 **** 0.06
2484 H 51.46601036775326 96.74382760719735 72.16348931432196 H 0.0 **** 0.06
2485 H 51.642095049204684 95.70503372045725 70.72886651081404 H 0.0 **** 0.06
2486 C 105.06834166974889 99.77763416688148 115.81076215059531 C 0.0 **** -0.24
2487 H 104.74493629143834 98.81745913476587 115.4074490155932 H 0.0 **** 0.06
2488 H 106.15048261209819 99.76815565749665 115.94544235908289 H 0.0 **** 0.06
2489 H 104.58256645939743 99.9502550266985 116.77135470796058 H 0.0 **** 0.06
2490 H 104.79484190860693 100.57287760977174 115.11721885143591 H 0.0 **** 0.06
2491 C 24.041250257262504 29.360266381594684 99.9009285697494 C 0.0 **** -0.24
2492 H 24.486923172889533 30.133095906279515 99.27406991406608 H 0.0 **** 0.06
2493 H 24.310147598019853 29.53874034944966 100.94223296240295 H 0.0 **** 0.06
2494 H 24.412914162824677 28.382973387874898 99.59174748827365 H 0.0 **** 0.06
2495 H 22.95691260293347 29.387658706174975 99.7950038486992 H 0.0 **** 0.06
2496 C 5.783479763734354 98.91232251073271 63.97876904090822 C 0.0 **** -0.24
2497 H 5.994058491642994 98.84421810274245 62.91189749682263 H 0.0 **** 0.06
2498 H 4.71238750663046 99.05111172299856 64.12963173115614 H 0.0 **** 0.06
2499 H 6.324096019446824 99.75865745910045 64.4022873554901 H 0.0 **** 0.06
2500 H 6.10323168035363 97.99331963004184 64.4710444012187 H 0.0 **** 0.06
2501 C 1.8849205336495913 58.9840052234382 49.570339754302324 C 0.0 **** -0.24
2502 H 2.7322173742788465 59.66823642243918 49.51883907124099 H 0.0 **** 0.06
2503 H 1.0921540340018083 59.43324728337848 50.169134748766254 H 0.0 **** 0.06
2504 H 2.201434888684645 58.04782867443555 50.03011870196488 H 0.0 **** 0.06
2505 H 1.51434610548543 58.78780325497365 48.56515876201624 H 0.0 **** 0.06
2506 C 74.70971102570729 69.37476665033358 2.319016522377744 C 0.0 **** -0.24
2507 H 75.64845903141071 69.07264647510425 2.783920993606589 H 0.0 **** 0.06
2508 H 74.7021971101492 70.45679061939552 2.1865429723955003 H 0.0 **** 0.06
2509 H 73.87703942984058 69.08025739625009 2.958262094528095 H 0.0 **** 0.06
2510 H 74.61342814976484 68.88820793782662 1.3489048145221059 H 0.0 **** 0.06
2511 C 89.03525457897103 10.103385942013261 103.30861048579537 C 0.0 **** -0.24
2512 H 89.8083740044562 10.617715815007188 103.87940264321556 H 0.0 **** 0.06
2513 H 89.32162389246321 10.070382994107945 102.25734030876174 H 0.0 **** 0.06
2514 H 88.09172873573277 10.63852911361748 103.41198010310728 H 0.0 **** 0.06
2515 H 88.92039257573697 9.0874164454805 103.68645206535777 H 0.0 **** 0.06
2516 C 109.41894257412196 39.82297740829689 102.94545618937795 C 0.0 **** -0.24
2517 H 110.37558808485511 40.3437765392449 102.98105340145491 H 0.0 **** 0.06
2518 H 108.84881098931191 40.1682492677656 102.08269208322017 H 0.0 **** 0.06
2519 H 108.85868440238704 40.02837535245874 103.85782675122769 H 0.0 **** 0.06
2520 H 109.59268187688377 38.74939106583372 102.85953360316616 H 0.0 **** 0.06
2521 C 9.636127635773875 5.461262795875399 85.54567085257816 C 0.0 **** -0.24
2522 H 9.767163810740726 5.107757842366027 84.52302462163036 H 0.0 **** 0.06
2523 H 8.714849258787183 6.040430660088617 85.61444830344512 H 0.0 **** 0.06
2524 H 10.482479289075798 6.089590129036594 85.824133105815 H 0.0 **** 0.06
2525 H 9.580365939391754 4.606898713077044 86.22021751440725 H 0.0 **** 0.06
2526 C 100.7068888867032 67.00911088301932 68.83801567999416 C 0.0 **** -0.24
2527 H 101.26869064379626 66.19622356431323 68.37898137729985 H 0.0 **** 0.06
2528 H 100.84401306629768 67.91994752325627 68.25461601688716 H 0.0 **** 0.06
2529 H 101.06596378387215 67.17067262001797 69.85420540311833 H 0.0 **** 0.06
2530 H 99.64876600428198 66.74902518128165 68.86345063521105 H 0.0 **** 0.06
2531 C 21.670330994077673 22.63700625456454 49.05912132194976 C 0.0 **** -0.24
2532 H 21.21615445188921 21.800607214914606 48.52928476055564 H 0.0 **** 0.06
2533 H 22.75112162414193 22.498611610670537 49.09832757418832 H 0.0 **** 0.06
2534 H 21.272742560720033 22.683462922835048 50.07328788008283 H 0.0 **** 0.06
2535 H 21.441305339559477 23.565343269837854 48.53558507297248 H 0.0 **** 0.06
2536 C 104.29511457154962 110.31105784199619 83.36820083577592 C 0.0 **** -0.24
2537 H 105.13538018368152 110.0197625112955 82.73812363907902 H 0.0 **** 0.06
2538 H 104.59984796706316 110.28136289123647 84.41509548872523 H 0.0 **** 0.06
2539 H 103.46663611100507 109.62062503473142 83.21046204904934 H 0.0 **** 0.06
2540 H 103.98081387479742 111.32227476730384 83.10929550229844 H 0.0 **** 0.06
2541 C 9.513913048685794 78.71661496496534 44.94639279398115 C 0.0 **** -0.24
2542 H 10.01286183542993 78.7026162157452 43.97668780001845 H 0.0 **** 0.06
2543 H 8.479360211235615 79.0333987190792 44.81803011092546 H 0.0 **** 0.06
2544 H 10.029123888103754 79.41268920476315 45.60893565637451 H 0.0 **** 0.06
2545 H 9.537234205385829 77.71645015858132 45.3806048532316 H 0.0 **** 0.06
2546 C 30.02574203255989 71.39134680069893 29.803489093137955 C 0.0 **** -0.24
2547 H 30.772513738128737 70.73371164951975 30.248440307979195 H 0.0 **** 0.06
2548 H 29.058830062479217 71.21305544344867 30.274876443661242 H 0.0 **** 0.06
2549 H 29.952224202091372 71.18709375705237 28.73525860080872 H 0.0 **** 0.06
2550 H 30.318853298363138 72.42977010277686 29.95616638068509 H 0.0 **** 0.06
2551 C 15.731192943815188 34.1423366399776 86.36119658979291 C 0.0 **** -0.24
2552 H 16.473364668106626 33.68240099729013 85.7081529989882 H 0.0 **** 0.06
2553 H 16.21867889331284 34.50111429460742 87.26862630817884 H 0.0 **** 0.06
2554 H 14.97248418958398 33.40445679545468 86.62346164679751 H 0.0 **** 0.06
2555 H 15.261610090418458 34.979416247826805 85.84509272624322 H 0.0 **** 0.06
2556 C 105.34553969611216 11.694117208865293 42.38730473004463 C 0.0 **** -0.24
2557 H 106.36240061316533 11.507021103471828 42.04166112987002 H 0.0 **** 0.06
2558 H 104.71611984422171 11.957463572602961 41.53627477061684 H 0.0 **** 0.06
2559 H 105.35043482373332 12.51505986541926 43.10332265164786 H 0.0 **** 0.06
2560 H 104.95363228193224 10.796904306925725 42.86516462050059 H 0.0 **** 0.06
2561 C 8.13070731907797 75.55590924696057 2.5124174798522176 C 0.0 **** -0.24
2562 H 8.882643549713137 75.00814138625118 1.9439864315878026 H 0.0 **** 0.06
2563 H 7.158348900158757 75.08008340200217 2.3796714639689185 H 0.0 **** 0.06
2564 H 8.084559955477289 76.58402985229134 2.1566930649860296 H 0.0 **** 0.06
2565 H 8.398081082573412 75.54849216202213 3.5693431356500014 H 0.0 **** 0.06
2566 C 2.9073005146444473 95.61906537888814 78.9196460624476 C 0.0 **** -0.24
2567 H 2.916725870410289 96.70621276728167 78.84082805870842 H 0.0 **** 0.06
2568 H 3.8032560253678867 95.21260606461016 78.44934811333195 H 0.0 **** 0.06
2569 H 2.022288144332464 95.22656924694121 78.41779099872971 H 0.0 **** 0.06
2570 H 2.8856750055557256 95.3309858036763 79.97125536260255 H 0.0 **** 0.06
2571 C 63.174717253931334 18.834342040446188 46.133109076659196 C 0.0 **** -0.24
2572 H 63.009037868367045 18.070059978142012 45.374199469738244 H 0.0 **** 0.06
2573 H 63.509252830229315 18.36245040105382 47.05706783870892 H 0.0 **** 0.06
2574 H 62.244974114978504 19.372992464088725 46.31583828206794 H 0.0 **** 0.06
2575 H 63.936510068212584 19.531864539025776 45.78490708546562 H 0.0 **** 0.06
2576 C 45.17369686838822 44.15888942691227 107.55103625080613 C 0.0 **** -0.24
2577 H 45.296111928960414 45.0234270381097 106.89850055659832 H 0.0 **** 0.06
2578 H 46.138332179462395 43.67135360829809 107.69358841963492 H 0.0 **** 0.06
2579 H 44.474969324991434 43.45722737449501 107.09533158228498 H 0.0 **** 0.06
2580 H 44.783683511874756 44.4846495161917 108.51533418194234 H 0.0 **** 0.06
2581 C 42.01671278633154 30.596214714816938 20.39915158226712 C 0.0 **** -0.24
2582 H 41.602426076356494 30.74470773723911 19.401945536147117 H 0.0 **** 0.06
2583 H 43.02447029015832 30.185408720324915 20.31622402713674 H 0.0 **** 0.06
2584 H 41.38587989189756 29.903399306329618 20.95579078808455 H 0.0 **** 0.06
2585 H 42.055977824807144 31.551903421378483 20.92161391837356 H 0.0 **** 0.06
2586 C 66.46774351119029 91.87457047526385 82.65300908978081 C 0.0 **** -0.24
2587 H 66.89697001447598 91.48981287442354 83.57660510127445 H 0.0 **** 0.06
2588 H 67.17854493297557 92.54983175228472 82.1746230401062 H 0.0 **** 0.06
2589 H 65.54811222259906 92.41547007028265 82.87747179933272 H 0.0 **** 0.06
2590 H 66.24642341413738 91.04516086925526 81.98129361850874 H 0.0 **** 0.06
2591 C 18.059560799778147 92.01560388664882 75.16206250203703 C 0.0 **** -0.24
2592 H 19.075724276441427 92.39256750333578 75.04413115476746 H 0.0 **** 0.06
2593 H 17.841763150244514 91.88393040840629 76.2220638457616 H 0.0 **** 0.06
2594 H 17.966038192568607 91.0581341356006 74.64907733368642 H 0.0 **** 0.06
2595 H 17.355241727780744 92.72809960212845 74.73218684854834 H 0.0 **** 0.06
2596 C 79.71756277561167 98.18070359491935 88.40333225621373 C 0.0 **** -0.24
2597 H 80.32206581850392 97.58248935772139 89.08564918671166 H 0.0 **** 0.06
2598 H 79.50822450985896 99.1487449565293 88.85894940932191 H 0.0 **** 0.06
2599 H 78.77966231166806 97.66336138315404 88.20109151990803 H 0.0 **** 0.06
2600 H 80.26063769827363 98.32763557081859 87.47038578986488 H 0.0 **** 0.06
2601 C 100.56287522696982 24.945691184143584 80.10777365178345 C 0.0 **** -0.24
2602 H 101.61272019707712 24.798475466715047 80.36136511147271 H 0.0 **** 0.06
2603 H 100.00739218521574 25.219705235694903 81.00573665264051 H 0.0 **** 0.06
2604 H 100.15549156654095 24.022461458327484 79.69666060564509 H 0.0 **** 0.06
2605 H 100.47536655640818 25.743082424577096 79.3701247049579 H 0.0 **** 0.06
2606 C 48.44207103708834 59.72214263343318 27.2211743404863 C 0.0 **** -0.24
2607 H 47.88578650479093 60.283660902783424 26.470024317903608 H 0.0 **** 0.06
2608 H 49.430784223033015 59.47626620670684 26.831607057781753 H 0.0 **** 0.06
2609 H 47.90663174190365 58.803469199652255 27.458352268490586 H 0.0 **** 0.06
2610 H 48.546696438953006 60.32506029619972 28.12239422982924 H 0.0 **** 0.06
2611 C 53.46584494378499 55.85071366450018 100.83526676759482 C 0.0 **** -0.24
2612 H 52.661913300699126 55.17078886697891 101.11646014002747 H 0.0 **** 0.06
2613 H 54.41978197747895 55.32378827722809 100.88145574339671 H 0.0 **** 0.06
2614 H 53.48365617770071 56.69604115593097 101.52294527457866 H 0.0 **** 0.06
2615 H 53.298204284237926 56.2112758168266 99.81999038022832 H 0.0 **** 0.06
2616 C 54.816518891095974 26.523809828855434 8.606606274605113 C 0.0 **** -0.24
2617 H 55.26685781242423 25.584671624859524 8.927504739036152 H 0.0 **** 0.06
2618 H 54.15156273117419 26.337513507678935 7.762822782016599 H 0.0 **** 0.06
2619 H 55.60065532747501 27.21785236642313 8.305577194506327 H 0.0 **** 0.06
2620 H 54.24738195564426 26.95300690975988 9.430329216976148 H 0.0 **** 0.06
2621 C 93.68021890432186 66.74754311360988 19.735118499855787 C 0.0 **** -0.24
2622 H 92.74058232122474 67.3006266218282 19.72082405729276 H 0.0 **** 0.06
2623 H 93.95678489384966 66.52909221380003 20.765964725498065 H 0.0 **** 0.06
2624 H 94.4618174032409 67.3476453202797 19.268475466711948 H 0.0 **** 0.06
2625 H 93.56091187794874 65.81471117461791 19.184330934046557 H 0.0 **** 0.06
2626 C 17.817071018177845 62.57670839860296 107.03087104657817 C 0.0 **** -0.24
2627 H 16.84363066703724 62.469758854109244 106.55292837749346 H 0.0 **** 0.06
2628 H 18.16799415134768 63.602446512320896 106.9165782436902 H 0.0 **** 0.06
2629 H 18.528056792636917 61.89491527707615 106.56334995776342 H 0.0 **** 0.06
2630 H 17.72926110149012 62.33906644226418 108.09101267495919 H 0.0 **** 0.06
2631 C 82.67634791459444 80.46929631929754 91.13543677225027 C 0.0 **** -0.24
2632 H 83.13178352704847 80.02452017165882 90.25045193902653 H 0.0 **** 0.06
2633 H 83.37237313602715 80.4080864449963 91.97198431498856 H 0.0 **** 0.06
2634 H 81.76148966169896 79.92926951985653 91.38255228313038 H 0.0 **** 0.06
2635 H 82.43883484980195 81.51437025455701 90.93524536331917 H 0.0 **** 0.06
2636 C 73.74198368732976 22.754655087735433 34.870353958716805 C 0.0 **** -0.24
2637 H 73.94376579398204 21.705270297463986 35.08608786461562 H 0.0 **** 0.06
2638 H 74.48630849645161 23.377153187460806 35.367100633207 H 0.0 **** 0.06
2639 H 72.7477824576236 23.015253107932132 35.23407111705967 H 0.0 **** 0.06
2640 H 73.78944191612186 22.919480280739155 33.79348257294126 H 0.0 **** 0.06
2641 C 7.389661827556154 59.8259450254352 11.845309431251067 C 0.0 **** -0.24
2642 H 7.2086707271199515 58.75251455649858 11.882224275670936 H 0.0 **** 0.06
2643 H 6.574797601317927 60.31393077784003 11.310052686713988 H 0.0 **** 0.06
2644 H 8.330756517523792 60.017189521613574 11.328362665186404 H 0.0 **** 0.06
2645 H 7.446642090371752 60.21994632672177 12.860413773118864 H 0.0 **** 0.06
2646 C 52.867687762585646 48.40865134754765 88.75677833962308 C 0.0 **** -0.24
2647 H 53.66680208779455 47.894239311155985 88.22278852681602 H 0.0 **** 0.06
2648 H 52.739903643558115 49.409105833401554 88.3433408007562 H 0.0 **** 0.06
2649 H 53.12630599944437 48.481478352390425 89.81317097113163 H 0.0 **** 0.06
2650 H 51.93916943382476 47.84808140915712 88.64806487586077 H 0.0 **** 0.06
2651 C 105.43715822534513 74.19757825948045 14.05042553232505 C 0.0 **** -0.24
2652 H 105.54496268360171 75.10185783069198 14.648287669396439 H 0.0 **** 0.06
2653 H 104.63096544002269 73.58670914000206 14.457487819919379 H 0.0 **** 0.06
2654 H 106.3687104774933 73.63247749869663 14.075506724359286 H 0.0 **** 0.06
2655 H 105.20380877211774 74.46788900161448 13.020669891932016 H 0.0 **** 0.06
2656 C 113.2915859585579 48.29331927630109 39.96772918529504 C 0.0 **** -0.24
2657 H 112.97925514553862 49.17334920198727 40.530445258054456 H 0.0 **** 0.06
2658 H 114.03939564020254 47.74387448302819 40.54010204314213 H 0.0 **** 0.06
2659 H 113.71949887799678 48.60488510004323 39.01550769998184 H 0.0 **** 0.06
2660 H 112.42847221617961 47.65294107696691 39.7872660144468 H 0.0 **** 0.06
2661 C 12.180755145661038 54.92676265894005 72.84996714464143 C 0.0 **** -0.24
2662 H 12.65153687798687 54.224693239229 73.53833017412165 H 0.0 **** 0.06
2663 H 11.149035618490643 54.62365231715253 72.671665454638 H 0.0 **** 0.06
2664 H 12.726727252082469 54.93266947875003 71.90665059390733 H 0.0 **** 0.06
2665 H 12.196194089404486 55.92657496279213 73.28444105667512 H 0.0 **** 0.06
2666 C 35.95756018827615 60.2751809714686 36.812429608473735 C 0.0 **** -0.24
2667 H 36.92692059335974 60.470237800885144 37.271596046044465 H 0.0 **** 0.06
2668 H 35.47584661488878 61.2222775756354 36.56569754150712 H 0.0 **** 0.06
2669 H 35.33125566374136 59.71941569578138 37.510054965370955 H 0.0 **** 0.06
2670 H 36.096672919544886 59.69025005254095 35.90318815061164 H 0.0 **** 0.06
2671 C 18.55138733139367 73.55753967923465 110.65908888001817 C 0.0 **** -0.24
2672 H 19.5151281403611 73.59684187806803 111.16772981297251 H 0.0 **** 0.06
2673 H 18.467634707703155 72.61812176990443 110.11271625951801 H 0.0 **** 0.06
2674 H 18.474870035518194 74.39163892147397 109.96203215680093 H 0.0 **** 0.06
2675 H 17.749704162917865 73.62353327217522 111.39522035255303 H 0.0 **** 0.06
2676 C 21.746419179300204 3.6047598626447552 31.384121345077325 C 0.0 **** -0.24
2677 H 21.11508038725836 3.0697019828926955 30.675019147712128 H 0.0 **** 0.06
2678 H 21.985315371453794 4.59094286972325 30.98446110016843 H 0.0 **** 0.06
2679 H 22.6670768228023 3.0446235543015234 31.54510372552324 H 0.0 **** 0.06
2680 H 21.21743094499533 3.71493036539475 32.33166002961206 H 0.0 **** 0.06
2681 C 27.963153750513982 73.43799970531632 6.361203372905823 C 0.0 **** -0.24
2682 H 27.25224281095427 73.90580161660915 7.041714590981323 H 0.0 **** 0.06
2683 H 28.002141500633115 74.00535024124065 5.430646577557663 H 0.0 **** 0.06
2684 H 27.647044577856718 72.41606921886557 6.151494922834162 H 0.0 **** 0.06
2685 H 28.951364672451064 73.42516087487775 6.821863702847553 H 0.0 **** 0.06
2686 C 111.08374678227176 37.582363598258155 108.28326122572203 C 0.0 **** -0.24
2687 H 110.10269568172964 37.117043720330116 108.19039209537324 H 0.0 **** 0.06
2688 H 110.99381000785596 38.50890203054644 108.85077289459946 H 0.0 **** 0.06
2689 H 111.47821368077223 37.80056837753284 107.29106211758021 H 0.0 **** 0.06
2690 H 111.76098490131193 36.903222600702065 108.80200358898456 H 0.0 **** 0.06
2691 C 78.60779399635874 92.3862919241177 51.14727784221766 C 0.0 **** -0.24
2692 H 78.08632806109796 93.28931605120297 50.83156721729077 H 0.0 **** 0.06
2693 H 79.67633351126568 92.4999289817321 50.95998776499296 H 0.0 **** 0.06
2694 H 78.22968145628965 91.53227355701097 50.58598910396928 H 0.0 **** 0.06
2695 H 78.44099499515443 92.22422143842994 52.21256646600294 H 0.0 **** 0.06
2696 C 18.425448040900648 83.10870635685046 78.10299576708263 C 0.0 **** -0.24
2697 H 18.614959815726678 82.77441548378853 79.12325234322225 H 0.0 **** 0.06
2698 H 17.38508064720304 83.42194566180311 78.01066251406854 H 0.0 **** 0.06
2699 H 18.62154471805053 82.28980363040426 77.41059559878616 H 0.0 **** 0.06
2700 H 19.07979502921171 83.94742917036909 77.86861887549941 H 0.0 **** 0.06
2701 C 42.9117771154975 108.4541848883102 28.35592888500844 C 0.0 **** -0.24
2702 H 43.472600483049405 108.23279598744796 29.26427556391576 H 0.0 **** 0.06
2703 H 42.9126239664474 109.53031480776104 28.181615223136248 H 0.0 **** 0.06
2704 H 41.88574053478783 108.10493234199663 28.468183524634583 H 0.0 **** 0.06
2705 H 43.37753495233528 107.9488529357723 27.50983975706214 H 0.0 **** 0.06
2706 C 53.18084397437803 51.74431233640789 114.14962120782887 C 0.0 **** -0.24
2707 H 53.208732424276626 52.7507090214344 113.7322622691572 H 0.0 **** 0.06
2708 H 52.929728164537046 51.797629352761504 115.20990362943033 H 0.0 **** 0.06
2709 H 54.15714858912855 51.27478460281023 114.03090078386325 H 0.0 **** 0.06
2710 H 52.42788444064324 51.15395757026391 113.6263967732686 H 0.0 **** 0.06
2711 C 42.70608436669369 7.9112493977356735 17.65441301955947 C 0.0 **** -0.24
2712 H 42.84495239094192 8.204641779766803 18.695133518353472 H 0.0 **** 0.06
2713 H 43.333527558983405 7.046551562008915 17.434373604340408 H 0.0 **** 0.06
2714 H 42.985848348542625 8.739181740598099 17.003858149195196 H 0.0 **** 0.06
2715 H 41.659788020255554 7.653886027195085 17.48718666849814 H 0.0 **** 0.06
2716 C 102.10204351464148 70.08344350859056 60.585050853402436 C 0.0 **** -0.24
2717 H 101.20907107586416 69.86782857492837 59.9981990932057 H 0.0 **** 0.06
2718 H 102.8926761999771 70.44229778730735 59.92587247530821 H 0.0 **** 0.06
2719 H 102.43360707343382 69.17554279782925 61.08908504812587 H 0.0 **** 0.06
2720 H 101.87272423175403 70.84727112947135 61.32818515865665 H 0.0 **** 0.06
2721 C 24.25893027613739 20.78942106111768 53.99864270495334 C 0.0 **** -0.24
2722 H 24.089865885518975 20.812921907010193 55.075300268404135 H 0.0 **** 0.06
2723 H 23.337742206756815 20.497437369127226 53.49226464334055 H 0.0 **** 0.06
2724 H 25.04417163112879 20.06886708157245 53.769637160837476 H 0.0 **** 0.06
2725 H 24.562793743862613 21.77923053330072 53.657662106594955 H 0.0 **** 0.06
2726 C 85.34796032886535 66.49886813448921 44.20921350408085 C 0.0 **** -0.24
2727 H 84.48051513157327 65.90567335865074 44.49893811802208 H 0.0 **** 0.06
2728 H 85.77909358635554 66.09021819918746 43.29516595987521 H 0.0 **** 0.06
2729 H 86.09093796754368 66.46966980036382 45.00627576265816 H 0.0 **** 0.06
2730 H 85.04031027512065 67.53033192760768 44.03739836755636 H 0.0 **** 0.06
2731 C 47.35971699022815 58.88131633824909 54.70750721033403 C 0.0 **** -0.24
2732 H 46.4650136801678 59.396650890835275 54.360563778193296 H 0.0 **** 0.06
2733 H 47.09257265873708 58.18808747653483 55.50497896136051 H 0.0 **** 0.06
2734 H 48.075678061837195 59.611987651137426 55.08576745613658 H 0.0 **** 0.06
2735 H 47.805392908133285 58.33042534578169 53.880267493053964 H 0.0 **** 0.06
2736 C 6.429076028949268 47.052992246716265 115.59467814398005 C 0.0 **** -0.24
2737 H 5.719806114595002 46.950415045153555 116.41652223639967 H 0.0 **** 0.06
2738 H 6.286787320097986 46.23343322972745 114.88893767992293 H 0.0 **** 0.06
2739 H 7.446111661809596 47.023431787134065 115.98628162007432 H 0.0 **** 0.06
2740 H 6.26230411015662 48.002872721587046 115.08681324110087 H 0.0 **** 0.06
2741 C 69.16145445486984 111.92453899645255 40.79381189851193 C 0.0 **** -0.24
2742 H 68.88398802612647 111.62921877556604 41.80643916864608 H 0.0 **** 0.06
2743 H 68.57916802487561 111.3472479027701 40.075823009138276 H 0.0 **** 0.06
2744 H 70.2232058340762 111.73355197812113 40.638632941707385 H 0.0 **** 0.06
2745 H 68.9586502086998 112.98611926340575 40.65642098312156 H 0.0 **** 0.06
2746 C 102.95610942290352 77.5661025745892 15.68350458192316 C 0.0 **** -0.24
2747 H 103.03056070100757 78.21577873885724 16.555513434112186 H 0.0 **** 0.06
2748 H 103.8136246822948 76.89269365430684 15.658976339576611 H 0.0 **** 0.06
2749 H 102.94409852821292 78.17221321079663 14.778698480936782 H 0.0 **** 0.06
2750 H 102.03714332302661 76.98337138202169 15.743456178559313 H 0.0 **** 0.06
2751 C 26.455855534997482 107.16125465433947 92.09257510997178 C 0.0 **** -0.24
2752 H 25.83636498414876 106.51178812858888 91.47320260030256 H 0.0 **** 0.06
2753 H 25.816069596363462 107.79413117471766 92.70824942560213 H 0.0 **** 0.06
2754 H 27.078094805905636 107.78768002633693 91.45207983668277 H 0.0 **** 0.06
2755 H 27.091891719858523 106.55194856573807 92.73399039299366 H 0.0 **** 0.06
2756 C 19.97661150118723 101.39305664334921 61.57988756843383 C 0.0 **** -0.24
2757 H 19.84955979628914 101.12187817350332 62.6275824728811 H 0.0 **** 0.06
2758 H 19.654707427309045 102.42391712211366 61.431132693130905 H 0.0 **** 0.06
2759 H 19.374670603658586 100.73113298524925 60.957620939494575 H 0.0 **** 0.06
2760 H 21.026526248860584 101.2967702600252 61.30458143271224 H 0.0 **** 0.06
2761 C 74.75477187157685 8.000218218881727 63.52656452432008 C 0.0 **** -0.24
2762 H 73.72088010528512 8.228040568696784 63.78629969279085 H 0.0 **** 0.06
2763 H 74.78741562552494 7.537804296407074 62.53932373033737 H 0.0 **** 0.06
2764 H 75.17147729261796 7.313407875999317 64.26285499924538 H 0.0 **** 0.06
2765 H 75.33797210936035 8.920357252311902 63.51616612076316 H 0.0 **** 0.06
2766 C 15.182110223959025 100.89010929427926 80.40714813498818 C 0.0 **** -0.24
2767 H 14.47484806642569 101.27564056806716 81.14061139841766 H 0.0 **** 0.06
2768 H 15.687045156933582 101.72350270579503 79.91793577747387 H 0.0 **** 0.06
2769 H 14.648502511777433 100.30052029686601 79.66192323230138 H 0.0 **** 0.06
2770 H 15.918666443652437 100.26290560467413 80.90838457244692 H 0.0 **** 0.06
2771 C 20.057273302503177 99.96795919649787 16.820222664218306 C 0.0 **** -0.24
2772 H 19.99130275985351 101.00937598674074 17.134661039532944 H 0.0 **** 0.06
2773 H 19.563236521854435 99.84879231013826 15.855013065713564 H 0.0 **** 0.06
2774 H 19.569199131894493 99.3328601671584 17.558983340878314 H 0.0 **** 0.06
2775 H 21.104847900124696 99.68133909607094 16.729157190005253 H 0.0 **** 0.06
2776 C 104.95308742277064 29.955784872148115 87.63806248323573 C 0.0 **** -0.24
2777 H 104.4442724048738 29.41157894340671 88.43393920726776 H 0.0 **** 0.06
2778 H 105.0731118019151 29.303773653391545 86.77253945954072 H 0.0 **** 0.06
2779 H 105.93291538802316 30.278916948269682 87.98873374920642 H 0.0 **** 0.06
2780 H 104.36176681588103 30.82656137644682 87.35780602941355 H 0.0 **** 0.06
2781 C 89.71308020847717 60.4229738437261 111.6197622575481 C 0.0 **** -0.24
2782 H 89.18644190365919 60.1887247642956 110.69381403869593 H 0.0 **** 0.06
2783 H 90.74047504788203 60.06383684928001 111.55460049716834 H 0.0 **** 0.06
2784 H 89.20975333236666 59.937065093167945 112.45551239118203 H 0.0 **** 0.06
2785 H 89.71317869500292 61.50177940042714 111.7738371888104 H 0.0 **** 0.06
2786 C 5.218308899682441 32.09305861408805 113.0072873854865 C 0.0 **** -0.24
2787 H 5.986804244221219 32.86048304943836 112.92343568501289 H 0.0 **** 0.06
2788 H 4.653746221237228 32.0409717380129 112.0753321287314 H 0.0 **** 0.06
2789 H 4.544545290950737 32.34111043734828 113.82709615378417 H 0.0 **** 0.06
2790 H 5.688015364828914 31.128344784413386 113.20217628828874 H 0.0 **** 0.06
2791 C 80.21670463943919 41.354477598240464 82.87719110529133 C 0.0 **** -0.24
2792 H 80.50218578894169 42.131572618973706 83.58701042010085 H 0.0 **** 0.06
2793 H 79.21794363183515 40.99083125583124 83.120927442643 H 0.0 **** 0.06
2794 H 80.92839108666378 40.530713286845184 82.93357659501788 H 0.0 **** 0.06
2795 H 80.21698947150783 41.766587120909406 81.86751428503243 H 0.0 **** 0.06
2796 C 27.96641337234854 78.78537622304447 14.642231352267377 C 0.0 **** -0.24
2797 H 28.9665074973085 79.02754389396296 14.283107282464119 H 0.0 **** 0.06
2798 H 27.942948851401127 78.8580782066727 15.730044503899439 H 0.0 **** 0.06
2799 H 27.70890800432784 77.7698207776005 14.34021360309977 H 0.0 **** 0.06
2800 H 27.247583728226346 79.48408530152187 14.215637808349406 H 0.0 **** 0.06
2801 C 101.20711028413218 87.47150132043878 113.87526508297019 C 0.0 **** -0.24
2802 H 102.2412155809255 87.26851275115699 114.15459545816033 H 0.0 **** 0.06
2803 H 101.1746016070094 87.84303616913216 112.85076587367095 H 0.0 **** 0.06
2804 H 100.78971238752743 88.22159581654047 114.54746358914365 H 0.0 **** 0.06
2805 H 100.62456161464407 86.55331651373265 113.94797161889541 H 0.0 **** 0.06
2806 C 109.28003586781307 20.619731680318097 59.110849903040275 C 0.0 **** -0.24
2807 H 109.27646598493612 20.041076591003744 60.0343925818879 H 0.0 **** 0.06
2808 H 109.7211820695681 21.599033452006566 59.29654487881295 H 0.0 **** 0.06
2809 H 108.25724194429202 20.74306818559411 58.75578623260421 H 0.0 **** 0.06
2810 H 109.86574374514282 20.094611525487593 58.355992506792816 H 0.0 **** 0.06
2811 C 25.603828963586864 63.31749939530306 2.8595339380333584 C 0.0 **** -0.24
2812 H 25.739559060925558 63.681388393672535 3.87845235702283 H 0.0 **** 0.06
2813 H 25.761653669247096 62.23782921844591 2.83592463675647 H 0.0 **** 0.06
2814 H 26.32300940992326 63.804703232849306 2.201427231559048 H 0.0 **** 0.06
2815 H 24.591847200283723 63.54453744614531 2.5249892350956333 H 0.0 **** 0.06
2816 C 43.90855625983363 113.79826901251445 115.65741425764264 C 0.0 **** -0.24
2817 H 43.635014676791826 114.79812885857169 115.32062970172913 H 0.0 **** 0.06
2818 H 44.25409550361431 113.20989728536921 114.80681978789906 H 0.0 **** 0.06
2819 H 43.03803376085787 113.31523898534675 116.10394674598146 H 0.0 **** 0.06
2820 H 44.704266180363106 113.86914755195227 116.39905872470126 H 0.0 **** 0.06
2821 C 76.39812486471071 70.27424863304638 38.89141611012071 C 0.0 **** -0.24
2822 H 77.3263877557511 69.76979681954026 39.16321205551626 H 0.0 **** 0.06
2823 H 75.64871213755637 69.53233366012809 38.617475907714365 H 0.0 **** 0.06
2824 H 76.57937223742351 70.93813883661326 38.04661276281263 H 0.0 **** 0.06
2825 H 76.04072951982263 70.85711498988056 39.74092243135944 H 0.0 **** 0.06
2826 C 55.52703155860657 27.987532163355688 84.49111758432781 C 0.0 **** -0.24
2827 H 56.4886319655233 28.415670693998827 84.77239778790766 H 0.0 **** 0.06
2828 H 54.78209821462232 28.781099247190625 84.42242825503422 H 0.0 **** 0.06
2829 H 55.21714982496579 27.262826137097676 85.2438240498019 H 0.0 **** 0.06
2830 H 55.6187905379076 27.490079171701616 83.52499832094702 H 0.0 **** 0.06
2831 C 63.460053652560944 7.117042158753634 27.54018627009622 C 0.0 **** -0.24
2832 H 62.39469637278016 6.982334612812565 27.729105137754757 H 0.0 **** 0.06
2833 H 63.59833693876034 7.8447735211599365 26.740379813327216 H 0.0 **** 0.06
2834 H 63.90043053697353 6.164494027078206 27.245884046583768 H 0.0 **** 0.06
2835 H 63.945825382571584 7.477829969931975 28.447934942447908 H 0.0 **** 0.06
2836 C 55.83631040003445 107.5430110424029 57.92343810896563 C 0.0 **** -0.24
2837 H 56.224024617612145 108.54632281338439 57.746308939003995 H 0.0 **** 0.06
2838 H 56.53686504805381 106.98877781373801 58.549019707004845 H 0.0 **** 0.06
2839 H 55.71206753831231 107.02773706505047 56.97176752024458 H 0.0 **** 0.06
2840 H 54.87256206329266 107.61036846779791 58.42940821276392 H 0.0 **** 0.06
2841 C 16.274995586106286 20.825321024865417 86.70433979198495 C 0.0 **** -0.24
2842 H 16.433321993149832 20.56989334242357 87.75224724023099 H 0.0 **** 0.06
2843 H 15.415150787849711 20.27636839420643 86.3219127795926 H 0.0 **** 0.06
2844 H 17.162275204168566 20.56047148619774 86.12853496027947 H 0.0 **** 0.06
2845 H 16.09157439056841 21.896919745269003 86.61637108880612 H 0.0 **** 0.06
2846 C 37.80355172443484 59.65213516274373 44.45266118436024 C 0.0 **** -0.24
2847 H 38.777844868757825 59.165061006493474 44.406745855110024 H 0.0 **** 0.06
2848 H 37.03128499420308 58.900770370065814 44.62285725569133 H 0.0 **** 0.06
2849 H 37.60943305035886 60.166902458818015 43.51252234573119 H 0.0 **** 0.06
2850 H 37.79592228645993 60.37246592599192 45.2701811475342 H 0.0 **** 0.06
2851 C 2.18614281651557 1.2525107517111849 9.956492140162084 C 0.0 **** -0.24
2852 H 2.4883060672016484 2.2180294884502985 10.363524762607696 H 0.0 **** 0.06
2853 H 2.9960010592889716 0.8440802891891224 9.351585729074273 H 0.0 **** 0.06
2854 H 1.2982695045155879 1.381510796870998 9.338119694771649 H 0.0 **** 0.06
2855 H 1.9627525670032924 0.5683001091991571 10.775365253376819 H 0.0 **** 0.06
2856 C 100.57900731977497 76.49045421067143 12.182114338850084 C 0.0 **** -0.24
2857 H 101.57519174458608 76.15606989036303 12.469927145001463 H 0.0 **** 0.06
2858 H 100.4180452713041 77.50593356230524 12.54473464689437 H 0.0 **** 0.06
2859 H 99.8324358476682 75.82597220392739 12.618053901159413 H 0.0 **** 0.06
2860 H 100.48999514693747 76.47308490190966 11.096287167703196 H 0.0 **** 0.06
2861 C 83.09023814175768 63.93395449224681 18.85854772778262 C 0.0 **** -0.24
2862 H 82.64126642371383 64.91938829011667 18.98776170367509 H 0.0 **** 0.06
2863 H 83.78284497449411 63.9589711108419 18.016488601840422 H 0.0 **** 0.06
2864 H 82.3071289768568 63.201051239558865 18.663841732996474 H 0.0 **** 0.06
2865 H 83.62872389052819 63.65836193694031 19.765002010198955 H 0.0 **** 0.06
2866 C 108.23487710128498 59.73087874334102 44.961790689698475 C 0.0 **** -0.24
2867 H 108.38070826998583 58.81814511969182 45.53867811578848 H 0.0 **** 0.06
2868 H 107.69017509799423 59.50010295197396 44.045880836994364 H 0.0 **** 0.06
2869 H 109.20476112142049 60.15986171574086 44.7096554864209 H 0.0 **** 0.06
2870 H 107.66390618175599 60.44696655769212 45.55369698672387 H 0.0 **** 0.06
2871 C 109.08345699258814 66.47684667335568 27.920065919331932 C 0.0 **** -0.24
2872 H 110.0180085930067 66.32455252778851 27.38123079939868 H 0.0 **** 0.06
2873 H 109.09848899099939 67.45427174689101 28.404255890445313 H 0.0 **** 0.06
2874 H 108.96917833639088 65.69917992025225 28.675869080632765 H 0.0 **** 0.06
2875 H 108.24854108308693 66.43021353683866 27.22176422270303 H 0.0 **** 0.06
2876 C 16.978773875073063 91.2895048126478 109.89609914371471 C 0.0 **** -0.24
2877 H 17.67298821494577 91.89083427022443 109.30907624019025 H 0.0 **** 0.06
2878 H 17.33054120771083 91.23129191056583 110.92593676812554 H 0.0 **** 0.06
2879 H 16.92079848346942 90.2868466038687 109.47413131664878 H 0.0 **** 0.06
2880 H 15.991109420804747 91.75130115388528 109.87435789092977 H 0.0 **** 0.06
2881 C 80.79118137420085 113.76720362391225 56.454853487565174 C 0.0 **** -0.24
2882 H 79.95275181527131 113.0713414760631 56.47549985013859 H 0.0 **** 0.06
2883 H 80.4164042676565 114.78517705867752 56.34245761492173 H 0.0 **** 0.06
2884 H 81.44309044844738 113.5245077117437 55.61511611142612 H 0.0 **** 0.06
2885 H 81.3524789654283 113.68778824916494 57.38634037377426 H 0.0 **** 0.06
2886 C 102.39077028896658 68.31461367547422 45.331939578669164 C 0.0 **** -0.24
2887 H 102.52802471564792 68.34218882383199 44.251038852999045 H 0.0 **** 0.06
2888 H 101.45031766687802 68.79956485631818 45.59123612990851 H 0.0 **** 0.06
2889 H 103.21537003537665 68.83866784719739 45.81580947129618 H 0.0 **** 0.06
2890 H 102.37131794982977 67.27758567297266 45.66969716044474 H 0.0 **** 0.06
2891 C 23.248111901247565 19.16007875270239 40.5845466591318 C 0.0 **** -0.24
2892 H 23.388028227890057 19.784946106448402 41.46711383203177 H 0.0 **** 0.06
2893 H 23.134100134174233 19.794976632164094 39.70595258383318 H 0.0 **** 0.06
2894 H 22.353924112615495 18.549542525655568 40.7111060600474 H 0.0 **** 0.06
2895 H 24.11581596471938 18.51266384929467 40.45672971284252 H 0.0 **** 0.06
2896 C 26.076432777602577 90.83857957189463 9.066666802599912 C 0.0 **** -0.24
2897 H 27.00581617210628 90.49424848234486 9.519956051388988 H 0.0 **** 0.06
2898 H 26.185963127322225 90.854816857868 7.981493955938902 H 0.0 **** 0.06
2899 H 25.84778242111446 91.84213606636217 9.424222228637802 H 0.0 **** 0.06
2900 H 25.267239304668465 90.16200244264309 9.34021172476372 H 0.0 **** 0.06
2901 C 58.82127749723924 8.318807470998877 75.2997209579336 C 0.0 **** -0.24
2902 H 58.62298590189084 7.272361346107203 75.06875887691479 H 0.0 **** 0.06
2903 H 57.88111799422691 8.87080871500271 75.3233080277339 H 0.0 **** 0.06
2904 H 59.47371840427866 8.742659009031456 74.53601203573874 H 0.0 **** 0.06
2905 H 59.30801290622679 8.390104019500995 76.27303646082322 H 0.0 **** 0.06
2906 C 83.5496643832916 28.275159214819155 73.01824354964708 C 0.0 **** -0.24
2907 H 83.36365249111776 28.86274008721972 73.91760214460405 H 0.0 **** 0.06
2908 H 83.68850345834495 28.944565472551687 72.16930507952293 H 0.0 **** 0.06
2909 H 82.69951836525452 27.61971452777715 72.83073213384938 H 0.0 **** 0.06
2910 H 84.44764827058728 27.67380444266604 73.15768491006708 H 0.0 **** 0.06
2911 C 101.62268968225555 80.720260383582 105.3072732587317 C 0.0 **** -0.24
2912 H 102.2330859800616 81.43524500559619 104.75673276556975 H 0.0 **** 0.06
2913 H 101.26139965678836 81.1824799760991 106.22642513516541 H 0.0 **** 0.06
2914 H 102.22253595496396 79.84404627296061 105.55337656500853 H 0.0 **** 0.06
2915 H 100.77393030038047 80.41891702774899 104.6939143032248 H 0.0 **** 0.06
2916 C 50.59210659089626 57.71580581359427 114.15327984483366 C 0.0 **** -0.24
2917 H 50.48360135909966 58.78801477692235 113.98554138893411 H 0.0 **** 0.06
2918 H 51.216675848840666 57.287231356506425 113.36897009958136 H 0.0 **** 0.06
2919 H 49.610246339357474 57.2440707083623 114.13625277261491 H 0.0 **** 0.06
2920 H 51.05952102382862 57.547477475598896 115.12363178572537 H 0.0 **** 0.06
2921 C 42.300845175720866 91.99787037537527 101.24391879238578 C 0.0 **** -0.24
2922 H 41.895069736816 92.17688098066552 102.2403861216272 H 0.0 **** 0.06
2923 H 43.349741693356805 92.29161874902042 101.22190794868472 H 0.0 **** 0.06
2924 H 41.74210619552434 92.58400497003714 100.51452073654644 H 0.0 **** 0.06
2925 H 42.21430660258352 90.93845367086652 101.00152055697865 H 0.0 **** 0.06
2926 C 0.8368494449233594 54.12561092114084 111.36124225159435 C 0.0 **** -0.24
2927 H 1.6289409978730305 54.101547669355135 112.10977982367913 H 0.0 **** 0.06
2928 H -0.07809939065509752 54.50706641265313 111.81384456653282 H 0.0 **** 0.06
2929 H 0.6634528214069064 53.118119141466416 110.98343083769348 H 0.0 **** 0.06
2930 H 1.134532202185369 54.77653910598271 110.5394210994186 H 0.0 **** 0.06
2931 C 63.94768503470084 106.5624693110952 57.51705514585143 C 0.0 **** -0.24
2932 H 63.7907280876164 105.84409921415407 56.7125966571503 H 0.0 **** 0.06
2933 H 63.45170562316835 107.50043853871294 57.268773718810564 H 0.0 **** 0.06
2934 H 65.01660279988022 106.73857455258104 57.64249189994172 H 0.0 **** 0.06
2935 H 63.533918709616444 106.16603267144984 58.44361162179166 H 0.0 **** 0.06
2936 C 44.370851380936216 5.207314980633148 59.29824270731538 C 0.0 **** -0.24
2937 H 44.79281364932131 5.866598932299528 58.539092444694134 H 0.0 **** 0.06
2938 H 43.920808751474176 4.339058370458622 58.81545007693205 H 0.0 **** 0.06
2939 H 43.60997904484714 5.744982725021391 59.86337561057874 H 0.0 **** 0.06
2940 H 45.16129086297255 4.879312429108166 59.973233299329806 H 0.0 **** 0.06
2941 C 14.199090273177148 34.846750217111634 52.45620950473449 C 0.0 **** -0.24
2942 H 13.418926329659001 34.6871264168343 51.71187690341202 H 0.0 **** 0.06
2943 H 14.02043603030657 34.199048350767384 53.31411595080834 H 0.0 **** 0.06
2944 H 14.188224430158883 35.88845670725473 52.77720652614249 H 0.0 **** 0.06
2945 H 15.170391887098333 34.61100856857399 52.01889414263604 H 0.0 **** 0.06
2946 C 48.872685583458235 16.629667619571848 73.7682871568581 C 0.0 **** -0.24
2947 H 49.55157494946778 17.33433997726101 74.24727628189288 H 0.0 **** 0.06
2948 H 48.039282347173014 17.173569583254817 73.32268497771315 H 0.0 **** 0.06
2949 H 48.493337520561624 15.929211081645946 74.51275561029803 H 0.0 **** 0.06
2950 H 49.40589250048896 16.081208222017835 72.99199841774745 H 0.0 **** 0.06
2951 C 91.46468383840926 73.18892321575566 27.180866102865252 C 0.0 **** -0.24
2952 H 91.49548462062455 72.38910518004934 26.440419601013105 H 0.0 **** 0.06
2953 H 92.2359588133701 73.92491932655884 26.951996621639154 H 0.0 **** 0.06
2954 H 91.64170937818153 72.77256874441008 28.172652611897618 H 0.0 **** 0.06
2955 H 90.48569290848135 73.66841317566394 27.156809135970846 H 0.0 **** 0.06
2956 C 98.54716661592218 23.788048165453205 51.21084856239554 C 0.0 **** -0.24
2957 H 97.75586919326213 23.53256559651146 51.916141865319325 H 0.0 **** 0.06
2958 H 98.38189400068325 24.795627851802095 50.82988049580274 H 0.0 **** 0.06
2959 H 98.53743898606788 23.079567445277462 50.382877568626625 H 0.0 **** 0.06
2960 H 99.51206250689069 23.742619669312518 51.716153167109354 H 0.0 **** 0.06
2961 C 36.71166329051804 101.24943330210613 85.66175125366172 C 0.0 **** -0.24
2962 H 37.20506798357594 101.90614576566381 86.37877227501264 H 0.0 **** 0.06
2963 H 37.09719631668851 101.44871031541891 84.66211807893015 H 0.0 **** 0.06
2964 H 35.63671806534481 101.43386849405164 85.6809886864865 H 0.0 **** 0.06
2965 H 36.907062073822054 100.21058378343739 85.92659179926497 H 0.0 **** 0.06
2966 C 79.92622826985524 81.162864104179 112.68454560550975 C 0.0 **** -0.24
2967 H 79.85190067011115 81.10575788535789 113.77006658051471 H 0.0 **** 0.06
2968 H 79.8286578046791 82.20139072884109 112.36713727496482 H 0.0 **** 0.06
2969 H 79.13167826661879 80.56824122716824 112.23454956143445 H 0.0 **** 0.06
2970 H 80.894841663286 80.77555646999417 112.3662021939835 H 0.0 **** 0.06
2971 C 43.61371731642396 15.773641099429451 43.843569709993176 C 0.0 **** -0.24
2972 H 44.33182317163667 16.49341544437202 43.45067605008046 H 0.0 **** 0.06
2973 H 44.149250894981776 14.937400883544587 44.29442191781203 H 0.0 **** 0.06
2974 H 42.98452489242703 15.407456913098216 43.032237720702426 H 0.0 **** 0.06
2975 H 42.99143213543036 16.255319962857513 44.59756252203687 H 0.0 **** 0.06
2976 C 108.3416696177265 97.21038232690734 38.27618443688634 C 0.0 **** -0.24
2977 H 108.09391208264822 96.31648124486497 38.847892900586146 H 0.0 **** 0.06
2978 H 108.56096579900611 96.93321919573543 37.244874415153376 H 0.0 **** 0.06
2979 H 109.21488277705805 97.69284078153507 38.71621422796687 H 0.0 **** 0.06
2980 H 107.49734575094635 97.89945093844196 38.29702220119145 H 0.0 **** 0.06
2981 C 11.260105857086643 47.67268352571034 74.34800026937111 C 0.0 **** -0.24
2982 H 11.855507794900703 47.58528501491497 75.25737293425516 H 0.0 **** 0.06
2983 H 10.401143327500876 48.31742691623987 74.53682279889466 H 0.0 **** 0.06
2984 H 10.91368764688211 46.68428748563326 74.0455151220921 H 0.0 **** 0.06
2985 H 11.871179729779271 48.103418760868266 73.55421409742394 H 0.0 **** 0.06
2986 C 62.43512143154197 14.066766714115847 30.1783533360491 C 0.0 **** -0.24
2987 H 61.5312641111081 14.187302576253607 29.582315143164465 H 0.0 **** 0.06
2988 H 62.27314611874618 14.483015837964274 31.173041359812373 H 0.0 **** 0.06
2989 H 63.260724806936366 14.59063190260633 29.69488153593204 H 0.0 **** 0.06
2990 H 62.67760722942728 13.007589502384022 30.2618566243126 H 0.0 **** 0.06
2991 C 78.50431951396803 72.10448846032294 87.25801351932482 C 0.0 **** -0.24
2992 H 78.20771746282645 73.1536126928185 87.2827357193534 H 0.0 **** 0.06
2993 H 79.58589774933449 72.03094255702132 87.3701654597219 H 0.0 **** 0.06
2994 H 78.20657388941885 71.66597662473795 86.3058310586201 H 0.0 **** 0.06
2995 H 78.01688661274952 71.57041439090052 88.07339231757385 H 0.0 **** 0.06
2996 C 109.47125337787338 102.07694007128933 28.35612510980843 C 0.0 **** -0.24
2997 H 109.83335853468687 101.33640168397375 27.642590711548735 H 0.0 **** 0.06
2998 H 108.70543176557393 102.69235416929268 27.882589074150815 H 0.0 **** 0.06
2999 H 110.29995803980432 102.70843223190447 28.675221875834424 H 0.0 **** 0.06
3000 H 109.04575642200591 101.56850522942393 29.22176010813331 H 0.0 **** 0.06
3001 C 49.23819986268374 82.08218936880509 51.30702999565675 C 0.0 **** -0.24
3002 H 50.04111950998099 82.57147862847697 50.75691497556198 H 0.0 **** 0.06
3003 H 49.287408111176305 81.00557954625987 51.141266782807605 H 0.0 **** 0.06
3004 H 48.276751731338464 82.45999329880499 50.95976322044646 H 0.0 **** 0.06
3005 H 49.3469885661887 82.29161601674093 52.3714824785196 H 0.0 **** 0.06
3006 C 36.869654483719835 111.18363984651057 56.54679077793321 C 0.0 **** -0.24
3007 H 36.429421004816156 112.02337550297672 56.00788806134824 H 0.0 **** 0.06
3008 H 36.850469618192164 111.38950790449242 57.61677433389133 H 0.0 **** 0.06
3009 H 37.90045009195793 111.04446815879139 56.221612082831854 H 0.0 **** 0.06
3010 H 36.29759516978588 110.27918291693051 56.338982261774305 H 0.0 **** 0.06
3011 C 76.13961877301811 4.083431424896219 29.555225967311657 C 0.0 **** -0.24
3012 H 75.71380729277935 4.342272657279693 30.52504780528139 H 0.0 **** 0.06
3013 H 76.41228481053841 3.0278202569654127 29.5486015773607 H 0.0 **** 0.06
3014 H 77.02729921767198 4.690142998873739 29.375342485207938 H 0.0 **** 0.06
3015 H 75.40451602306459 4.2748676135404935 28.773245973730894 H 0.0 **** 0.06
3016 C 68.78482875157255 13.874114078258255 24.77427364109589 C 0.0 **** -0.24
3017 H 68.79813411034081 14.766392738170325 24.148064941192608 H 0.0 **** 0.06
3018 H 68.3355858199252 13.048703284732671 24.222484428184842 H 0.0 **** 0.06
3019 H 68.2023658853472 14.071351266782028 25.674157548475677 H 0.0 **** 0.06
3020 H 69.80573699253728 13.61268302605746 25.053136936466288 H 0.0 **** 0.06
3021 C 100.98404733865912 113.55265643114961 56.9069407037249 C 0.0 **** -0.24
3022 H 100.6168401321486 114.27439978639285 57.63705233316051 H 0.0 **** 0.06
3023 H 102.0714159309848 113.49365725549336 56.97040956909231 H 0.0 **** 0.06
3024 H 100.69433854969188 113.86925884254742 55.90507830144093 H 0.0 **** 0.06
3025 H 100.55400209216458 112.5732960299041 57.11718069762257 H 0.0 **** 0.06
3026 C 80.89360841153027 29.203094780854258 32.18681568406726 C 0.0 **** -0.24
3027 H 81.88500655310389 29.327696295425113 31.751154408614518 H 0.0 **** 0.06
3028 H 80.9823593970475 28.709928681975256 33.15514778247508 H 0.0 **** 0.06
3029 H 80.27913842932895 28.5959296528888 31.522954526840827 H 0.0 **** 0.06
3030 H 80.43048834343602 30.181350158935885 32.3182759764675 H 0.0 **** 0.06
3031 C 75.7065326008114 33.878541211958975 16.160002282989836 C 0.0 **** -0.24
3032 H 75.8309393224737 34.222672122917686 15.133145695523723 H 0.0 **** 0.06
3033 H 76.66727873613794 33.54351956545333 16.54944271188583 H 0.0 **** 0.06
3034 H 74.99662424950532 33.05065576809615 16.181390982439297 H 0.0 **** 0.06
3035 H 75.32977170852362 34.69608972642309 16.773750724294985 H 0.0 **** 0.06
3036 C 3.4288799119097035 31.080769778726278 70.42884494497719 C 0.0 **** -0.24
3037 H 4.358307084571649 30.536348649078477 70.2610464511364 H 0.0 **** 0.06
3038 H 2.8839807833557956 31.16663554122725 69.48787275811961 H 0.0 **** 0.06
3039 H 3.655061080804572 32.07627022900286 70.81076703534973 H 0.0 **** 0.06
3040 H 2.819732916725769 30.54259807480426 71.15466632489239 H 0.0 **** 0.06
3041 C 90.11369296003704 44.692528610245276 106.21427481447819 C 0.0 **** -0.24
3042 H 90.57442617794409 44.98469006107479 107.15764118690076 H 0.0 **** 0.06
3043 H 90.85235337564902 44.19257798528156 105.58790455164359 H 0.0 **** 0.06
3044 H 89.74146244461066 45.57960347391102 105.70124439108403 H 0.0 **** 0.06
3045 H 89.28444750361955 44.01262331765392 106.41144063185108 H 0.0 **** 0.06
3046 C 80.19840732637192 48.05110546954242 33.830627173824126 C 0.0 **** -0.24
3047 H 80.32021271256585 48.37801981764301 34.86318709892287 H 0.0 **** 0.06
3048 H 79.1366674347673 47.97559216454931 33.596491142759575 H 0.0 **** 0.06
3049 H 80.67044734809375 47.07700584274397 33.70025569528408 H 0.0 **** 0.06
3050 H 80.66852672999676 48.77396880528724 33.16272599440301 H 0.0 **** 0.06
3051 C 66.54735614254047 73.22420217056236 106.24370106950249 C 0.0 **** -0.24
3052 H 66.7053611621202 74.30227777462976 106.28219773814317 H 0.0 **** 0.06
3053 H 66.95491888875739 72.83058820545304 105.31302703590575 H 0.0 **** 0.06
3054 H 65.47867501976492 73.01215150244549 106.2920725384023 H 0.0 **** 0.06
3055 H 67.0497315658168 72.75428790896805 107.08930208823062 H 0.0 **** 0.06
3056 C 82.74270062305798 111.11751862916228 39.647300098166056 C 0.0 **** -0.24
3057 H 82.191981451457 111.36598317004795 40.55467341400797 H 0.0 **** 0.06
3058 H 82.0622833250028 111.12581010392265 38.79542854606229 H 0.0 **** 0.06
3059 H 83.18317820200168 110.12604063787053 39.75066560683554 H 0.0 **** 0.06
3060 H 83.53248645422374 111.85155033214889 39.48930541065883 H 0.0 **** 0.06
3061 C 97.37491648444497 3.720603502987146 44.65664699967118 C 0.0 **** -0.24
3062 H 97.31180058554321 4.282995924697374 43.72546460091132 H 0.0 **** 0.06
3063 H 96.38305699486706 3.3622479428461105 44.932055054737646 H 0.0 **** 0.06
3064 H 97.7601596207423 4.367176829208631 45.44588922237671 H 0.0 **** 0.06
3065 H 98.04435730067347 2.8713730975204044 44.52328579561993 H 0.0 **** 0.06
3066 C 111.89003979337863 61.114306324866206 86.32081268287273 C 0.0 **** -0.24
3067 H 111.49933805233223 61.85104223144147 85.61832143438042 H 0.0 **** 0.06
3068 H 112.60738187235324 61.593465385666775 86.98708626767483 H 0.0 **** 0.06
3069 H 112.38296333442278 60.31375399017193 85.76992716622851 H 0.0 **** 0.06
3070 H 111.06957983481072 60.700665729287635 86.90677551441408 H 0.0 **** 0.06
3071 C 93.97337993008598 41.81049051178052 55.220244478215136 C 0.0 **** -0.24
3072 H 93.95951525395814 42.61984790192525 54.49026301190446 H 0.0 **** 0.06
3073 H 94.12878569141647 40.86146029487081 54.706590623977235 H 0.0 **** 0.06
3074 H 93.02304314687434 41.785432968025574 55.75251566285246 H 0.0 **** 0.06
3075 H 94.78331538059408 41.97645863204017 55.930135785510174 H 0.0 **** 0.06
3076 C 107.20666042858998 104.69204863715188 112.69519788392597 C 0.0 **** -0.24
3077 H 106.31384279205957 105.2820386492274 112.48610925508937 H 0.0 **** 0.06
3078 H 107.83718730127019 104.65890694921221 111.80637277295503 H 0.0 **** 0.06
3079 H 106.9161493837675 103.67889878744023 112.97273393064312 H 0.0 **** 0.06
3080 H 107.75918340901175 105.14914594463521 113.51611320404767 H 0.0 **** 0.06
3081 C 15.635546154074753 18.93881260997523 33.73261857690591 C 0.0 **** -0.24
3082 H 16.139875542034908 19.832222394262374 33.364611278441856 H 0.0 **** 0.06
3083 H 16.37302581185773 18.159289883494353 33.923484025245756 H 0.0 **** 0.06
3084 H 14.922289612774478 18.590642530599155 32.98562175747924 H 0.0 **** 0.06
3085 H 15.108294061030492 19.175133358891742 34.65636109165544 H 0.0 **** 0.06
3086 C 25.543454163796923 31.124715460078804 92.59605018115849 C 0.0 **** -0.24
3087 H 25.43428067486562 30.357914668914603 93.3638270517117 H 0.0 **** 0.06
3088 H 24.58203090278579 31.60906009299991 92.42726598567799 H 0.0 **** 0.06
3089 H 25.887264651978512 30.664107909777826 91.66976318335128 H 0.0 **** 0.06
3090 H 26.27187285975839 31.865719904523843 92.9247919505103 H 0.0 **** 0.06
3091 C 91.98630741617825 108.7834535591288 83.50808090211913 C 0.0 **** -0.24
3092 H 91.61321491084908 109.7961164129521 83.66124579175295 H 0.0 **** 0.06
3093 H 91.14593347363314 108.11081969100698 83.3298002142227 H 0.0 **** 0.06
3094 H 92.53063727924234 108.45867947896026 84.39495201065564 H 0.0 **** 0.06
3095 H 92.65307284901746 108.76842661945972 82.64575461805593 H 0.0 **** 0.06
3096 C 61.47492721227354 82.31665196417941 29.762227885570844 C 0.0 **** -0.24
3097 H 62.409246173461725 82.81349978936842 30.024492826733308 H 0.0 **** 0.06
3098 H 61.685975176786485 81.46545980193542 29.11463987386633 H 0.0 **** 0.06
3099 H 60.82424695936302 83.01901384906861 29.239662444538318 H 0.0 **** 0.06
3100 H 60.981612531969006 81.97032788007277 30.66961629562597 H 0.0 **** 0.06
3101 C 94.39670179191528 97.68400633137898 111.29591740140421 C 0.0 **** -0.24
3102 H 93.31296032496428 97.74600864399241 111.19899640682195 H 0.0 **** 0.06
3103 H 94.82202394714636 98.68706603958645 111.2518732263345 H 0.0 **** 0.06
3104 H 94.80095844495935 97.08172108668543 110.48304685209982 H 0.0 **** 0.06
3105 H 94.65000192908899 97.22333049874874 112.25067096253271 H 0.0 **** 0.06
3106 C 44.96491811342071 68.54776763934666 89.5911821042614 C 0.0 **** -0.24
3107 H 44.23323386528173 68.55568212459241 90.3988689605884 H 0.0 **** 0.06
3108 H 44.523575111950294 68.99141183514786 88.69751222181128 H 0.0 **** 0.06
3109 H 45.26053300524609 67.5202869691488 89.37986044696774 H 0.0 **** 0.06
3110 H 45.84076476732105 69.12441770210381 89.88835021989533 H 0.0 **** 0.06
3111 C 55.238244150328924 10.791472079280709 5.353104221967669 C 0.0 **** -0.24
3112 H 55.934504823135036 11.510607074957306 4.923722823585479 H 0.0 **** 0.06
3113 H 54.85007160566996 11.180475982273776 6.295498357786684 H 0.0 **** 0.06
3114 H 55.75382905380675 9.84831445119903 5.53374874740345 H 0.0 **** 0.06
3115 H 54.41253648147391 10.627065980505165 4.660683797767078 H 0.0 **** 0.06
3116 C 13.21707760454532 65.39281088988963 88.73058424811279 C 0.0 **** -0.24
3117 H 12.554089434938948 64.87706343156714 88.0349695014851 H 0.0 **** 0.06
3118 H 12.83599379410828 65.28259090521306 89.74535179934536 H 0.0 **** 0.06
3119 H 13.262351319276767 66.45099118725165 88.47123630151039 H 0.0 **** 0.06
3120 H 14.215871817074635 64.96018064141555 88.66734042979158 H 0.0 **** 0.06
3121 C 6.761947374454294 37.571368176952205 112.98795202619691 C 0.0 **** -0.24
3122 H 7.558647261225374 38.20095158888262 113.38426954537721 H 0.0 **** 0.06
3123 H 6.058110492590117 37.33114741630891 113.7852250158717 H 0.0 **** 0.06
3124 H 7.190937533046792 36.65043947846118 112.59192250679376 H 0.0 **** 0.06
3125 H 6.242005149912316 38.10140352746265 112.19031606271024 H 0.0 **** 0.06
3126 C 23.181773437749683 99.8627183801351 108.73120451131217 C 0.0 **** -0.24
3127 H 23.66891630326171 99.72249881574199 109.6961645401876 H 0.0 **** 0.06
3128 H 23.645025022068182 99.20891424549403 107.99190098273635 H 0.0 **** 0.06
3129 H 23.290433449586487 100.901063084454 108.41702961832434 H 0.0 **** 0.06
3130 H 22.123680576748256 99.61866454132665 108.81978617401941 H 0.0 **** 0.06
3131 C 7.621369878389693 104.30660426330707 9.63014300823773 C 0.0 **** -0.24
3132 H 8.365510409539933 104.04616415114714 10.383082842610914 H 0.0 **** 0.06
3133 H 7.4593194445952165 103.4534318955831 8.969818663104046 H 0.0 **** 0.06
3134 H 7.97672545470949 105.15566486847916 9.046735752897963 H 0.0 **** 0.06
3135 H 6.684604001175451 104.56885900462538 10.121446043461741 H 0.0 **** 0.06
3136 C 33.227092675378344 75.06164530634793 0.3724482420997841 C 0.0 **** -0.24
3137 H 33.246708217225006 75.86064470868332 -0.3678406652644144 H 0.0 **** 0.06
3138 H 33.31219587433023 74.09791841998893 -0.13149877358269446 H 0.0 **** 0.06
3139 H 32.28805882044742 75.10066474909941 0.9245075278970294 H 0.0 **** 0.06
3140 H 34.061360676977074 75.1852199685395 1.0634220430012373 H 0.0 **** 0.06
3141 C 72.15612039562228 104.7668314975632 114.57882505371703 C 0.0 **** -0.24
3142 H 71.07856809972185 104.63318909385538 114.67441957508572 H 0.0 **** 0.06
3143 H 72.3721272610407 105.80446304976152 114.32471810954695 H 0.0 **** 0.06
3144 H 72.53468302526323 104.11384956898229 113.79151471276634 H 0.0 **** 0.06
3145 H 72.63794006250049 104.51461768781132 115.52316743081485 H 0.0 **** 0.06
3146 C 111.8734823894489 53.18234751237765 83.17676637153909 C 0.0 **** -0.24
3147 H 111.57117630838047 52.94173757159468 82.1571799427713 H 0.0 **** 0.06
3148 H 111.01916910105851 53.072070560681915 83.8449013662748 H 0.0 **** 0.06
3149 H 112.23680321221431 54.20852721137893 83.21551776984197 H 0.0 **** 0.06
3150 H 112.66859688130904 52.50395480877943 83.4891602692607 H 0.0 **** 0.06
3151 C 77.61796832240444 88.20963720149192 56.24697503108284 C 0.0 **** -0.24
3152 H 76.72373789367617 87.59155010787464 56.31953378882946 H 0.0 **** 0.06
3153 H 77.97087221167374 88.21812576121212 55.215157019354265 H 0.0 **** 0.06
3154 H 78.39543394107503 87.80283802761909 56.89357552130781 H 0.0 **** 0.06
3155 H 77.38120453460056 89.2269782594912 56.558785300147136 H 0.0 **** 0.06
3156 C 44.4874184284475 91.122810106759 107.10228198422823 C 0.0 **** -0.24
3157 H 44.2821352469221 90.20039833857385 106.55763165034469 H 0.0 **** 0.06
3158 H 43.77203851674632 91.88919289531788 106.8020260541611 H 0.0 **** 0.06
3159 H 45.498812829671 91.46059936922302 106.87484326676332 H 0.0 **** 0.06
3160 H 44.39712999821682 90.93930029376656 108.17223040242106 H 0.0 **** 0.06
3161 C 34.08944573613394 76.64939779227404 69.18820870238045 C 0.0 **** -0.24
3162 H 34.95652829679858 76.01429170081977 69.37115588466865 H 0.0 **** 0.06
3163 H 34.28186430837047 77.64781313041432 69.57980467880469 H 0.0 **** 0.06
3164 H 33.21744709154797 76.22556832256438 69.68758588629703 H 0.0 **** 0.06
3165 H 33.90180015837535 76.70749834058559 68.11605618651276 H 0.0 **** 0.06
3166 C 17.092003975750572 94.67416187917974 84.23950807131023 C 0.0 **** -0.24
3167 H 17.559138043368193 95.60078437633189 83.90589592084862 H 0.0 **** 0.06
3168 H 16.028796054237404 94.6953190506398 83.99851452101696 H 0.0 **** 0.06
3169 H 17.218141746385868 94.57256628860648 85.31772103320398 H 0.0 **** 0.06
3170 H 17.562159500197225 93.82871200124833 83.73800154339503 H 0.0 **** 0.06
3171 C 47.346651673794355 104.4241086784279 60.94136003166298 C 0.0 **** -0.24
3172 H 47.733218258992366 103.44160878766155 61.21316478377115 H 0.0 **** 0.06
3173 H 46.525237227068786 104.68865010720998 61.606649178152125 H 0.0 **** 0.06
3174 H 46.98868475592592 104.4000792459261 59.911652850919225 H 0.0 **** 0.06
3175 H 48.141307106048956 105.16435715397992 61.032713602047735 H 0.0 **** 0.06
3176 C 78.49240018374309 76.40811288042931 85.88184616294575 C 0.0 **** -0.24
3177 H 78.01688523521688 75.5153439436761 85.47651089901967 H 0.0 **** 0.06
3178 H 79.54161913545352 76.1994334623543 86.0884399390275 H 0.0 **** 0.06
3179 H 77.9901493547456 76.70005888733164 86.80454396341992 H 0.0 **** 0.06
3180 H 78.41820050558994 77.21916414074082 85.15614104341142 H 0.0 **** 0.06
3181 C 0.03149373670589739 46.494356198963715 18.898487728879388 C 0.0 **** -0.24
3182 H 0.6972800381007005 45.69044118965587 19.21212892917788 H 0.0 **** 0.06
3183 H -0.4877573350497073 46.896329931778155 19.769229407141353 H 0.0 **** 0.06
3184 H -0.6976388229766712 46.105688516730766 18.18808738018643 H 0.0 **** 0.06
3185 H 0.6146533497465043 47.28413899680987 18.42454198071215 H 0.0 **** 0.06
3186 C 70.8570776917659 3.696249538067093 90.11480734090114 C 0.0 **** -0.24
3187 H 70.05264460755193 3.8363259274197503 90.83757122367513 H 0.0 **** 0.06
3188 H 70.45291665324567 3.7602333834083197 89.1046660335291 H 0.0 **** 0.06
3189 H 71.3106390319064 2.7164184984176245 90.26372943716154 H 0.0 **** 0.06
3190 H 71.61041310122961 4.47045869139879 90.25620901693213 H 0.0 **** 0.06
3191 C 98.95507753850403 33.581316613397746 97.19812129958933 C 0.0 **** -0.24
3192 H 99.84404669807803 34.100944258645484 97.5562742324829 H 0.0 **** 0.06
3193 H 98.71648221926446 33.923119732848704 96.19097907788799 H 0.0 **** 0.06
3194 H 98.1174506105862 33.79498396392103 97.86289194354006 H 0.0 **** 0.06
3195 H 99.14253958385905 32.50794205489581 97.18374919005788 H 0.0 **** 0.06
3196 C 50.750228009216585 6.851117263332323 24.53902415037676 C 0.0 **** -0.24
3197 H 51.490364682613006 7.093918423607191 23.77645424225196 H 0.0 **** 0.06
3198 H 49.78043491890526 7.2546117183982215 24.246505459199014 H 0.0 **** 0.06
3199 H 51.052842078463584 7.287381035998067 25.491259011721183 H 0.0 **** 0.06
3200 H 50.67650197928907 5.76904509424851 24.642960628985264 H 0.0 **** 0.06
3201 C 97.48429378010262 97.95887280923137 104.20598035908478 C 0.0 **** -0.24
3202 H 96.84755506341747 98.37685258951956 104.98580230885585 H 0.0 **** 0.06
3203 H 97.16671351630079 96.93963760693964 103.98455098393181 H 0.0 **** 0.06
3204 H 98.51985286068869 97.95176222975675 104.54748795619092 H 0.0 **** 0.06
3205 H 97.40370889844763 98.56847183117657 103.3058555475548 H 0.0 **** 0.06
3206 C 68.48424517315851 4.668956553231794 80.8436466540839 C 0.0 **** -0.24
3207 H 67.60831874415123 4.025225222348013 80.7593112787861 H 0.0 **** 0.06
3208 H 68.54657117924683 5.0640662026054315 81.85843997524692 H 0.0 **** 0.06
3209 H 68.39869728967108 5.493505811742125 80.1368612857504 H 0.0 **** 0.06
3210 H 69.38142357515761 4.090727425849707 80.62192934678295 H 0.0 **** 0.06
3211 C 66.19589503151224 114.89570750144641 3.5112833760645117 C 0.0 **** -0.24
3212 H 66.70328287944835 114.42236834005378 2.6702220178975153 H 0.0 **** 0.06
3213 H 66.36055594232863 115.97284522256314 3.475301456689948 H 0.0 **** 0.06
3214 H 66.59473188001442 114.49777175929694 4.4447740877539275 H 0.0 **** 0.06
3215 H 65.12732491210147 114.68908251810936 3.454595191907856 H 0.0 **** 0.06
3216 C 6.670667703333649 27.258085403729126 111.02482346086364 C 0.0 **** -0.24
3217 H 5.7381810842009315 27.25827687199063 111.59034648727662 H 0.0 **** 0.06
3218 H 7.381728773816036 27.935971123872832 111.49735354111283 H 0.0 **** 0.06
3219 H 6.47723417295488 27.586947272280668 110.00449419458562 H 0.0 **** 0.06
3220 H 7.085139575929631 26.249716326319515 111.00970837965627 H 0.0 **** 0.06
3221 C 33.726766039675624 86.83246894799342 77.81669785336594 C 0.0 **** -0.24
3222 H 34.55619390626998 86.60791779166873 78.4877029024919 H 0.0 **** 0.06
3223 H 33.8444254402429 87.83946127806801 77.41711778021326 H 0.0 **** 0.06
3224 H 32.787138387288394 86.76543315356022 78.36605720121963 H 0.0 **** 0.06
3225 H 33.72028692762797 86.11411873838021 76.99651946480674 H 0.0 **** 0.06
3226 C 94.17167489886401 95.52338065616924 99.2702242688411 C 0.0 **** -0.24
3227 H 94.48663930304036 95.51680013470579 100.31370866026333 H 0.0 **** 0.06
3228 H 94.80774199321067 94.85046063657971 98.6945595295249 H 0.0 **** 0.06
3229 H 94.25614048943498 96.53425456563106 98.87205341938704 H 0.0 **** 0.06
3230 H 93.13500895240037 95.1910557766007 99.20189023856835 H 0.0 **** 0.06
3231 C 65.136643724794 5.602681230424679 66.8705064524232 C 0.0 **** -0.24
3232 H 65.28162507482403 6.659718033421086 66.64627177794402 H 0.0 **** 0.06
3233 H 65.81384590657404 5.006412401444422 66.25895985224534 H 0.0 **** 0.06
3234 H 64.10604779855618 5.322603572632474 66.65129393841406 H 0.0 **** 0.06
3235 H 65.34539369165282 5.423689449163533 67.92546568071299 H 0.0 **** 0.06
3236 C 84.96340650994932 69.5229073988103 69.75513176331498 C 0.0 **** -0.24
3237 H 85.471510310627 69.11564000941735 68.88135071360941 H 0.0 **** 0.06
3238 H 84.338713966452 68.75104407020652 70.2041671252397 H 0.0 **** 0.06
3239 H 84.3395598779506 70.3649415171548 69.4524593746145 H 0.0 **** 0.06
3240 H 85.70331422683468 69.86118296793667 70.48102280491395 H 0.0 **** 0.06
3241 C 41.729358527520105 34.46552398578049 89.04419075396305 C 0.0 **** -0.24
3242 H 42.04941622326976 33.51670954357232 88.61280134931116 H 0.0 **** 0.06
3243 H 42.14523533083283 35.28746444654374 88.46060444930183 H 0.0 **** 0.06
3244 H 42.08252209007469 34.53480144878375 90.07230776917629 H 0.0 **** 0.06
3245 H 40.64088391287257 34.52339907297659 89.02869699094362 H 0.0 **** 0.06
3246 C 54.19120832530783 9.131901348372537 76.6574457726964 C 0.0 **** -0.24
3247 H 54.39095810876347 9.958060418996581 77.340163718254 H 0.0 **** 0.06
3248 H 53.95324826740148 8.236416828998301 77.22976642135156 H 0.0 **** 0.06
3249 H 55.073878342266454 8.948233199050435 76.04396042741041 H 0.0 **** 0.06
3250 H 53.34887180713167 9.388524042177721 76.01474245291242 H 0.0 **** 0.06
3251 C 67.62288036192335 68.71628608782997 72.87702347001454 C 0.0 **** -0.24
3252 H 68.2642189112406 68.53469214397566 73.73960452255955 H 0.0 **** 0.06
3253 H 66.716505754318 69.22880183124427 73.20075219579502 H 0.0 **** 0.06
3254 H 67.35756628793445 67.76459256750896 72.41585161611181 H 0.0 **** 0.06
3255 H 68.15293133317968 69.33580561387524 72.15396949670702 H 0.0 **** 0.06
3256 C 62.880883613095875 90.29204431383488 46.3860707663719 C 0.0 **** -0.24
3257 H 62.44182973129972 91.26005198034433 46.62585057170076 H 0.0 **** 0.06
3258 H 63.5192645760913 90.39127521505286 45.508152473298516 H 0.0 **** 0.06
3259 H 62.08611077043355 89.57450726352059 46.178404322204614 H 0.0 **** 0.06
3260 H 63.4742099233537 89.94224467052098 47.23065150913633 H 0.0 **** 0.06
3261 C 44.56739835851181 32.50686243164185 8.383065301285367 C 0.0 **** -0.24
3262 H 44.82536555713489 33.50021516649542 8.749954673529682 H 0.0 **** 0.06
3263 H 44.70412579502866 31.77760281373986 9.18243796281051 H 0.0 **** 0.06
3264 H 45.2139853911757 32.250990106718234 7.543634469348003 H 0.0 **** 0.06
3265 H 43.527836610887306 32.498454349822424 8.0561506267263 H 0.0 **** 0.06
3266 C 105.47396878254602 16.830778186686075 109.31030735160036 C 0.0 **** -0.24
3267 H 104.7496806256541 16.736058141147424 110.11926985149637 H 0.0 **** 0.06
3268 H 105.15297933221649 16.2235945444894 108.46355391323075 H 0.0 **** 0.06
3269 H 106.44959233929131 16.48652283398428 109.65519508683032 H 0.0 **** 0.06
3270 H 105.54367473284987 17.87425186649395 109.00454721353479 H 0.0 **** 0.06
3271 C 103.17183485891135 40.38466425487581 50.11470657908808 C 0.0 **** -0.24
3272 H 102.31015404849668 40.779518976851044 49.57661320905663 H 0.0 **** 0.06
3273 H 104.05215537459685 40.42813818738971 49.47363221092155 H 0.0 **** 0.06
3274 H 102.97923092391689 39.349951742439515 50.3993402583244 H 0.0 **** 0.06
3275 H 103.34455354752959 40.981631120520014 51.010692862835526 H 0.0 **** 0.06
3276 C 74.64261403607483 8.43077715320564 53.10615454844563 C 0.0 **** -0.24
3277 H 74.94826356866655 9.174952481234428 52.370604409406894 H 0.0 **** 0.06
3278 H 75.51609949095521 7.874941660686744 53.44608775417734 H 0.0 **** 0.06
3279 H 73.9273981544308 7.743956319081931 52.65167018587343 H 0.0 **** 0.06
3280 H 74.17642152459699 8.93068320095172 53.955360681424935 H 0.0 **** 0.06
3281 C 53.815255896077254 60.21802324613823 75.53351897423346 C 0.0 **** -0.24
3282 H 53.781407329754195 61.087903744623446 76.1891985661069 H 0.0 **** 0.06
3283 H 54.072723609776645 60.53416360268076 74.5232283534988 H 0.0 **** 0.06
3284 H 52.84017220173721 59.73031358405805 75.52579478266533 H 0.0 **** 0.06
3285 H 54.56742367713563 59.51774225120187 75.89895679647472 H 0.0 **** 0.06
3286 C 83.2602296913434 30.495670224707233 44.09980353873124 C 0.0 **** -0.24
3287 H 82.5895722990183 31.21718457751009 43.63370030197376 H 0.0 **** 0.06
3288 H 83.32129628796639 30.69513233192862 45.169782187030705 H 0.0 **** 0.06
3289 H 84.25202376170569 30.583693857711296 43.65625318271833 H 0.0 **** 0.06
3290 H 82.87899086699645 29.487878838905836 43.93869807752668 H 0.0 **** 0.06
3291 C 46.37129089872286 100.35426005666852 103.228386536813 C 0.0 **** -0.24
3292 H 45.4090622697409 100.70289241180404 102.85024868862632 H 0.0 **** 0.06
3293 H 46.61389888045085 99.39487122427283 102.77006453185226 H 0.0 **** 0.06
3294 H 46.31474733388279 100.23694381424161 104.31047630477741 H 0.0 **** 0.06
3295 H 47.14421910339843 101.08120892164317 102.98125129723279 H 0.0 **** 0.06
3296 C 42.71500707392829 35.143673084832024 39.91339946980173 C 0.0 **** -0.24
3297 H 43.75102427524979 35.47109882553339 39.83416422539915 H 0.0 **** 0.06
3298 H 42.62081555673052 34.432457950593125 40.733657058618775 H 0.0 **** 0.06
3299 H 42.41196310063083 34.666069625378185 38.981542801110095 H 0.0 **** 0.06
3300 H 42.07535114840698 36.00541344506025 40.10389461234405 H 0.0 **** 0.06
3301 C 82.01372151758868 8.95136434883048 22.31067260487856 C 0.0 **** -0.24
3302 H 81.02582173716267 8.610145361477592 22.618679312350935 H 0.0 **** 0.06
3303 H 82.32108574727621 9.78759238058322 22.938270753740824 H 0.0 **** 0.06
3304 H 81.9789727154733 9.271107877714812 21.26886974920859 H 0.0 **** 0.06
3305 H 82.72848072220644 8.134635865299629 22.415964909818513 H 0.0 **** 0.06
3306 C 20.60272630219443 76.42756763108872 88.63217562756276 C 0.0 **** -0.24
3307 H 20.754178753012567 75.79853839502653 89.50988969281624 H 0.0 **** 0.06
3308 H 21.51134351556765 76.99405303198427 88.43040954276034 H 0.0 **** 0.06
3309 H 19.77787435442696 77.11513284804244 88.81675850697292 H 0.0 **** 0.06
3310 H 20.366643125414118 75.80061470750837 87.77236616147968 H 0.0 **** 0.06
3311 C 99.97530674430799 67.76447530489187 107.96184107534276 C 0.0 **** -0.24
3312 H 100.5512918652286 68.31141720861582 108.70870738419802 H 0.0 **** 0.06
3313 H 100.06620766004929 66.69355027050699 108.14602088730577 H 0.0 **** 0.06
3314 H 100.35872155044001 67.99667657693855 106.96780070233636 H 0.0 **** 0.06
3315 H 98.92807946021723 68.05777135166028 108.02534635930658 H 0.0 **** 0.06
3316 C 108.92849982671679 94.45251600023208 112.5862502342522 C 0.0 **** -0.24
3317 H 108.3541452625613 95.37654558063792 112.52749080882029 H 0.0 **** 0.06
3318 H 109.97095469405284 94.68586744814333 112.80060612808302 H 0.0 **** 0.06
3319 H 108.86181612108932 93.92230170935836 111.63634148505449 H 0.0 **** 0.06
3320 H 108.52548650316795 93.82514270243158 113.38211431504561 H 0.0 **** 0.06
3321 C 62.24649667662459 102.18209883467176 107.53773433164952 C 0.0 **** -0.24
3322 H 61.32760301848077 102.37450402672567 106.98425603968563 H 0.0 **** 0.06
3323 H 62.46113479251903 101.1133558406433 107.52727190227243 H 0.0 **** 0.06
3324 H 62.127590312347024 102.5190443455952 108.56747097231401 H 0.0 **** 0.06
3325 H 63.071256885252865 102.72303388264766 107.07168225656241 H 0.0 **** 0.06
3326 C 57.020360763200756 8.36892047265853 114.69728100112195 C 0.0 **** -0.24
3327 H 58.02485728109184 8.70092859230931 114.96064184964692 H 0.0 **** 0.06
3328 H 56.33859965928798 8.58477861423998 115.5209093809664 H 0.0 **** 0.06
3329 H 57.03055898937919 7.295458973976196 114.50678691777698 H 0.0 **** 0.06
3330 H 56.68740617060416 8.894402576800047 113.80177924359043 H 0.0 **** 0.06
3331 C 73.67499882129421 52.865601538031946 114.29408104101825 C 0.0 **** -0.24
3332 H 73.0688637864202 52.43151349760314 113.49928961304637 H 0.0 **** 0.06
3333 H 74.02658231732279 53.85044435371691 113.98698787519834 H 0.0 **** 0.06
3334 H 74.53050598471401 52.21960093531328 114.49228369233636 H 0.0 **** 0.06
3335 H 73.07354047393311 52.960280120834774 115.19895697554348 H 0.0 **** 0.06
3336 C 35.544781527124826 54.386974464028064 107.82358039231039 C 0.0 **** -0.24
3337 H 34.69394779892849 54.42760794491602 108.50376893111431 H 0.0 **** 0.06
3338 H 35.27344546748736 53.81415310038211 106.93740607395227 H 0.0 **** 0.06
3339 H 36.38585607098423 53.90700140656739 108.32438879640054 H 0.0 **** 0.06
3340 H 35.82448392559132 55.39910655325468 107.53141476998928 H 0.0 **** 0.06
3341 C 98.97112883214965 114.9105603098237 42.82346568939988 C 0.0 **** -0.24
3342 H 98.5880856132735 114.54944834262406 41.86864809768946 H 0.0 **** 0.06
3343 H 99.18205175925692 115.97785089821551 42.74933789990126 H 0.0 **** 0.06
3344 H 99.88798704225161 114.37517908893798 43.07204480980073 H 0.0 **** 0.06
3345 H 98.22815207770785 114.73958050323623 43.60121172153134 H 0.0 **** 0.06
3346 C 110.11608530113645 20.379027018028467 103.38748272314297 C 0.0 **** -0.24
3347 H 110.47147300147785 21.19771384051677 102.76215401453726 H 0.0 **** 0.06
3348 H 109.97743007626244 19.48791595350923 102.7748773190454 H 0.0 **** 0.06
3349 H 109.16658402713279 20.658013900695778 103.84441401784318 H 0.0 **** 0.06
3350 H 110.84866124316636 20.17387617123569 104.1675007492405 H 0.0 **** 0.06
3351 C 44.20063401787678 9.010206103454408 62.96133489368643 C 0.0 **** -0.24
3352 H 43.37927314926549 9.291570344465896 62.30218540269311 H 0.0 **** 0.06
3353 H 44.26499658018054 7.923324125411355 63.016203838925236 H 0.0 **** 0.06
3354 H 44.02251774345939 9.415220903391088 63.95719388187206 H 0.0 **** 0.06
3355 H 45.13517207643547 9.41004394506821 62.56864948065201 H 0.0 **** 0.06
3356 C 56.23942519467451 72.683450044535 112.87150727258381 C 0.0 **** -0.24
3357 H 56.39569448227209 73.2585359602985 111.95924546177008 H 0.0 **** 0.06
3358 H 57.18622868245808 72.57746725315246 113.40095354064175 H 0.0 **** 0.06
3359 H 55.85185344995932 71.69730776301876 112.61750718129588 H 0.0 **** 0.06
3360 H 55.52298298073546 73.20141764519798 113.5094419853778 H 0.0 **** 0.06
3361 C 65.70962222053356 78.53448121581977 104.41527692528624 C 0.0 **** -0.24
3362 H 64.98570774148686 79.2790193157922 104.08357914646479 H 0.0 **** 0.06
3363 H 65.33527178391569 77.53708530769035 104.18574548989662 H 0.0 **** 0.06
3364 H 65.86026139722384 78.62857725771863 105.49004352599246 H 0.0 **** 0.06
3365 H 66.65654994869999 78.69602567037884 103.90007519140693 H 0.0 **** 0.06
3366 C 27.37882799540796 54.84579371459404 28.990505482353683 C 0.0 **** -0.24
3367 H 27.792805559460987 55.14201821805858 28.02676736252056 H 0.0 **** 0.06
3368 H 26.79955353595642 55.67118070476596 29.40595830317477 H 0.0 **** 0.06
3369 H 28.190299934767097 54.5918444902012 29.671499284911988 H 0.0 **** 0.06
3370 H 26.731559798654985 53.97825803195724 28.85645938268442 H 0.0 **** 0.06
3371 C 93.57551841912678 47.16430345857981 114.11734109146308 C 0.0 **** -0.24
3372 H 93.28985336618803 48.061282091479086 113.56816503148855 H 0.0 **** 0.06
3373 H 93.57637233017726 47.37799145627042 115.18639922363914 H 0.0 **** 0.06
3374 H 94.57272735567801 46.85075788339077 113.80896299889115 H 0.0 **** 0.06
3375 H 92.86294567123758 46.3663934724255 113.90699775534402 H 0.0 **** 0.06
3376 C 41.13607550976404 65.26476128610051 111.41993884988412 C 0.0 **** -0.24
3377 H 40.23207965849763 65.45218799936654 111.999478570631 H 0.0 **** 0.06
3378 H 40.964340030945394 64.43329479747055 110.73753584079756 H 0.0 **** 0.06
3379 H 41.95564983116475 65.01814657549426 112.09529112822275 H 0.0 **** 0.06
3380 H 41.3919833178497 66.15734973510382 110.84854437820826 H 0.0 **** 0.06
3381 C 20.104874854947752 104.59677016406339 70.89342944950889 C 0.0 **** -0.24
3382 H 20.792923832785817 104.39591716961364 71.71453554815189 H 0.0 **** 0.06
3383 H 20.65958725969608 104.99805833629273 70.0447365975256 H 0.0 **** 0.06
3384 H 19.35735568731093 105.32342641767947 71.21461855858193 H 0.0 **** 0.06
3385 H 19.609959864633936 103.67186104973409 70.5994655684402 H 0.0 **** 0.06
3386 C 51.59835619781575 19.058226744616718 105.69728705121896 C 0.0 **** -0.24
3387 H 51.27721822473069 19.49975152805773 104.75341212756231 H 0.0 **** 0.06
3388 H 50.96036879586234 19.42034182041047 106.50363890712246 H 0.0 **** 0.06
3389 H 52.63270666245322 19.341053379190157 105.89747913442513 H 0.0 **** 0.06
3390 H 51.52451571528812 17.9730771023885 105.6334565498706 H 0.0 **** 0.06
3391 C 58.16825263218834 33.10063428690265 24.31147283535134 C 0.0 **** -0.24
3392 H 57.14788925797836 32.783761109545935 24.529129847448274 H 0.0 **** 0.06
3393 H 58.24061599446418 33.3993629587284 23.265563520179683 H 0.0 **** 0.06
3394 H 58.85271115542264 32.27436526864463 24.502743783788105 H 0.0 **** 0.06
3395 H 58.429954550664434 33.94465186819309 24.95056598207816 H 0.0 **** 0.06
3396 C 4.27080873352412 51.13327718185822 72.92632760451397 C 0.0 **** -0.24
3397 H 3.4876682677505073 51.145136431532144 73.68332881462112 H 0.0 **** 0.06
3398 H 4.29282805672176 50.15740012023851 72.44127537660324 H 0.0 **** 0.06
3399 H 5.23506126807149 51.327450460715525 73.39685112746884 H 0.0 **** 0.06
3400 H 4.06815410876203 51.90406690826645 72.18291732735372 H 0.0 **** 0.06
3401 C 77.77575288226048 3.485314345586062 59.08859013925131 C 0.0 **** -0.24
3402 H 77.14609379577355 3.968917349697307 59.835984393311335 H 0.0 **** 0.06
3403 H 77.28358012364437 2.5822197158032054 58.72877967170673 H 0.0 **** 0.06
3404 H 78.7342962611093 3.2242123903683932 59.536716122183904 H 0.0 **** 0.06
3405 H 77.93794237955396 4.168181351422987 58.25450034449186 H 0.0 **** 0.06
3406 C 13.941875043597747 51.04362343377127 50.361501510392706 C 0.0 **** -0.24
3407 H 13.812660733858152 51.21663049834385 49.293400047118695 H 0.0 **** 0.06
3408 H 13.845670267191622 49.97763622786857 50.57003334720864 H 0.0 **** 0.06
3409 H 13.18025848225686 51.59348260645311 50.91355187449373 H 0.0 **** 0.06
3410 H 14.930849617947374 51.385937357584396 50.66687840186334 H 0.0 **** 0.06
3411 C 38.95329785703976 69.26833759315048 72.76779488308512 C 0.0 **** -0.24
3412 H 39.88778795392642 68.81300271023264 72.43898643997028 H 0.0 **** 0.06
3413 H 38.38703071424827 68.54795733537087 73.35949113350597 H 0.0 **** 0.06
3414 H 38.36692953052473 69.5637270149216 71.89683798564073 H 0.0 **** 0.06
3415 H 39.17046526653709 70.1471310284116 73.37456167540762 H 0.0 **** 0.06
3416 C 108.01453280956409 105.44490439348147 25.183070564188803 C 0.0 **** -0.24
3417 H 107.90458679225728 106.36076202303232 25.762610168417417 H 0.0 **** 0.06
3418 H 108.92972928020315 104.93301649360032 25.481907975768628 H 0.0 **** 0.06
3419 H 108.06547437704161 105.68991343612026 24.122059209375713 H 0.0 **** 0.06
3420 H 107.15840059256536 104.79451386530184 25.364703135030915 H 0.0 **** 0.06
3421 C 37.17338909606883 47.48949890683568 91.13418967616055 C 0.0 **** -0.24
3422 H 36.63032216377127 48.37932114821106 90.8159064145166 H 0.0 **** 0.06
3423 H 38.157565365721325 47.47810960356682 90.66468784597924 H 0.0 **** 0.06
3424 H 36.618528629759965 46.600099087823224 90.83821790729701 H 0.0 **** 0.06
3425 H 37.28832789378083 47.502499934971866 92.21861886797237 H 0.0 **** 0.06
3426 C 97.42745649334245 39.25350681327379 4.730936013169298 C 0.0 **** -0.24
3427 H 98.16979437851754 38.46610922212366 4.604192191998209 H 0.0 **** 0.06
3428 H 97.62958355791943 39.79885369110188 5.653381701070543 H 0.0 **** 0.06
3429 H 96.43321737074021 38.811464632063704 4.780501451811347 H 0.0 **** 0.06
3430 H 97.47807470814467 39.939525232894596 3.8849069790884414 H 0.0 **** 0.06
3431 C 31.289150368083327 79.83861667202396 26.46847824599962 C 0.0 **** -0.24
3432 H 30.695042604832167 80.73709730827417 26.302324548933854 H 0.0 **** 0.06
3433 H 32.260765511363395 80.11676572211597 26.87744243123089 H 0.0 **** 0.06
3434 H 31.429296465484256 79.3160260605949 25.522095821064397 H 0.0 **** 0.06
3435 H 30.77216531375697 79.18481937721937 27.17134675559052 H 0.0 **** 0.06
3436 C 74.21603022778936 52.39876460388069 60.38962965499849 C 0.0 **** -0.24
3437 H 74.32804654137709 52.13659761771186 61.44244942224515 H 0.0 **** 0.06
3438 H 75.0015554981722 51.914042512827166 59.80956145220932 H 0.0 **** 0.06
3439 H 74.29254038131774 53.479508977776106 60.27455449658788 H 0.0 **** 0.06
3440 H 73.24156483109508 52.06389880058737 60.03414598779045 H 0.0 **** 0.06
3441 C 96.40011951478957 105.17083080713455 57.84619591134614 C 0.0 **** -0.24
3442 H 96.67398950660288 104.15336714046587 57.56898947092276 H 0.0 **** 0.06
3443 H 97.14071460705554 105.86646409668171 57.45214545150901 H 0.0 **** 0.06
3444 H 96.36576338592818 105.25390435864088 58.93301423155586 H 0.0 **** 0.06
3445 H 95.42034660497688 105.40953815927074 57.433442529992874 H 0.0 **** 0.06
3446 C 52.111541423276634 73.2825505460118 80.7507466539696 C 0.0 **** -0.24
3447 H 51.89261225383195 74.35040608224199 80.72962415096089 H 0.0 **** 0.06
3448 H 53.04522409551877 73.09255838046823 80.22145165714949 H 0.0 **** 0.06
3449 H 51.301442930860695 72.73605918021798 80.26779616299729 H 0.0 **** 0.06
3450 H 52.2059560557622 72.95204519494132 81.78473388663144 H 0.0 **** 0.06
3451 C 41.16929730572909 80.24998948202895 51.04695890481909 C 0.0 **** -0.24
3452 H 40.526943134262396 80.17451951050452 50.169407212039786 H 0.0 **** 0.06
3453 H 40.561113796659384 80.17808382013462 51.94872049002344 H 0.0 **** 0.06
3454 H 41.68793646147611 81.20926341398604 51.03409130425089 H 0.0 **** 0.06
3455 H 41.89952230027086 79.44192835048301 51.03350079232968 H 0.0 **** 0.06
3456 C 3.522787305463453 20.33449088796999 82.555846516776 C 0.0 **** -0.24
3457 H 4.515223661149832 20.7102746891498 82.30679998997812 H 0.0 **** 0.06
3458 H 3.5589428423054983 19.248769277830263 82.65051948595621 H 0.0 **** 0.06
3459 H 2.8226133246168104 20.607400517028168 81.76631293032486 H 0.0 **** 0.06
3460 H 3.195616076996174 20.770925126979364 83.49944849055981 H 0.0 **** 0.06
3461 C 102.70821083574066 105.73636774675228 69.0684443380323 C 0.0 **** -0.24
3462 H 103.33512325626015 105.97446261222987 69.92808800833035 H 0.0 **** 0.06
3463 H 101.65942107082569 105.86596672341331 69.33661353963473 H 0.0 **** 0.06
3464 H 102.88138183049671 104.70342286942723 68.76780967932797 H 0.0 **** 0.06
3465 H 102.95751397557916 106.40199006208145 68.24197749631134 H 0.0 **** 0.06
3466 C 14.370048816657572 10.522492829505993 24.187413155444574 C 0.0 **** -0.24
3467 H 13.96165819603965 9.672464907645605 23.6413452529937 H 0.0 **** 0.06
3468 H 13.608981771731806 11.299041894966905 24.270365640395255 H 0.0 **** 0.06
3469 H 15.234992331252215 10.916325836557036 23.65344232506825 H 0.0 **** 0.06
3470 H 14.673888127705851 10.202772088843773 25.184120668907703 H 0.0 **** 0.06
3471 C 51.465411581212436 64.45915965502851 49.47821291848763 C 0.0 **** -0.24
3472 H 50.88161216431621 63.554063298103884 49.642858976193224 H 0.0 **** 0.06
3473 H 52.30710281298349 64.48004623174644 50.17159539875257 H 0.0 **** 0.06
3474 H 50.83575266785388 65.33337713836323 49.64340369845925 H 0.0 **** 0.06
3475 H 51.839343901717186 64.46899958604635 48.4538582858676 H 0.0 **** 0.06
3476 C 77.2510701785572 16.029926545153046 82.91363899442905 C 0.0 **** -0.24
3477 H 77.3350259000066 15.36180035128018 83.7713915469322 H 0.0 **** 0.06
3478 H 76.74605696186529 16.94728111138261 83.21742814548861 H 0.0 **** 0.06
3479 H 76.67466785183393 15.540496168145012 82.12829776734333 H 0.0 **** 0.06
3480 H 78.24634415045455 16.26811677530293 82.5402978517009 H 0.0 **** 0.06
3481 C 68.9072984020441 80.0433644702355 62.95822509849896 C 0.0 **** -0.24
3482 H 68.3738495887304 79.60755062536194 62.11364698257992 H 0.0 **** 0.06
3483 H 69.42241177859196 80.94805254264249 62.63441761494063 H 0.0 **** 0.06
3484 H 69.634419409149 79.32588126553013 63.33876873250546 H 0.0 **** 0.06
3485 H 68.19619348275573 80.2917993488683 63.74683560240274 H 0.0 **** 0.06
3486 C 17.76799141586025 99.92289328097624 57.04681678667748 C 0.0 **** -0.24
3487 H 17.895103920055902 100.9928524265309 57.20846558895221 H 0.0 **** 0.06
3488 H 18.342265915095908 99.6169514395221 56.172577734932815 H 0.0 **** 0.06
3489 H 16.712862485016075 99.703192698799 56.88418793758399 H 0.0 **** 0.06
3490 H 18.12145485066253 99.37955693996918 57.92301639982486 H 0.0 **** 0.06
3491 C 89.14645879278333 91.14433357388413 46.39380087300358 C 0.0 **** -0.24
3492 H 88.8123411610627 90.63401849096516 45.4911861142869 H 0.0 **** 0.06
3493 H 88.95625001970024 92.2136545469694 46.297390915719625 H 0.0 **** 0.06
3494 H 90.21413121582009 90.97589772895407 46.53231254035539 H 0.0 **** 0.06
3495 H 88.60127180809468 90.754998619822 47.254021215978085 H 0.0 **** 0.06
3496 C 37.951915667744856 17.0697057880854 100.82867369607784 C 0.0 **** -0.24
3497 H 38.07750114240406 18.078757274361237 101.22199922603502 H 0.0 **** 0.06
3498 H 36.89836795857519 16.89513664837611 100.60805762391004 H 0.0 **** 0.06
3499 H 38.293708896965086 16.34609405283399 101.56932411982851 H 0.0 **** 0.06
3500 H 38.53749560908756 16.959498817322242 99.91577494547904 H 0.0 **** 0.06
3501 C 100.11505117270849 107.97914422897816 63.09880499020693 C 0.0 **** -0.24
3502 H 100.74039139579673 108.18333802666088 62.23000407993544 H 0.0 **** 0.06
3503 H 100.05937333793241 106.90224237504061 63.26109790368463 H 0.0 **** 0.06
3504 H 99.11301791808063 108.37285545716482 62.925604427298026 H 0.0 **** 0.06
3505 H 100.5469437569929 108.45717768603392 63.977595249133515 H 0.0 **** 0.06
3506 C 47.30561582155133 46.76492258199295 38.79478627483038 C 0.0 **** -0.24
3507 H 47.15327509184951 46.217286978144955 37.86454269261952 H 0.0 **** 0.06
3508 H 48.169509280985835 47.4208771352377 38.69266278458377 H 0.0 **** 0.06
3509 H 47.47917047147264 46.058440322942545 39.60727333782958 H 0.0 **** 0.06
3510 H 46.42038701267745 47.360874401839226 39.0143583036305 H 0.0 **** 0.06
3511 C 43.3543295932061 111.17392140040305 68.94907373050037 C 0.0 **** -0.24
3512 H 43.03344197152467 110.14438901635832 69.11022832273494 H 0.0 **** 0.06
3513 H 44.42119988984149 111.2578173523122 69.15268294988923 H 0.0 **** 0.06
3514 H 42.80223791523224 111.83417634653313 69.61811465141253 H 0.0 **** 0.06
3515 H 43.15689217466809 111.45697487823564 67.91520345715944 H 0.0 **** 0.06
3516 C 33.53739467643976 24.745939408496326 70.46885495984017 C 0.0 **** -0.24
3517 H 32.682969098547176 24.291740365361647 69.96783432847337 H 0.0 **** 0.06
3518 H 34.395759854168105 24.07842767321904 70.39941572840183 H 0.0 **** 0.06
3519 H 33.29419156768361 24.917983422625696 71.51801783475179 H 0.0 **** 0.06
3520 H 33.77567116643384 25.695766587954267 69.99016278620542 H 0.0 **** 0.06
3521 C 0.7564493190984081 75.38212798064924 70.93059243181102 C 0.0 **** -0.24
3522 H 1.1523210359221707 74.72472546471136 71.70524017072381 H 0.0 **** 0.06
3523 H 0.02432644832600772 76.06041399611642 71.3693301254614 H 0.0 **** 0.06
3524 H 0.2783913380633578 74.78267759242488 70.15476226414856 H 0.0 **** 0.06
3525 H 1.5716172764569478 75.95919140666007 70.49299031958657 H 0.0 **** 0.06
3526 C 106.38603175405946 45.67725163834417 95.68759952292504 C 0.0 **** -0.24
3527 H 105.30244206572388 45.5547788037788 95.7032014643527 H 0.0 **** 0.06
3528 H 106.64156254408383 46.57480976349155 95.1235365506642 H 0.0 **** 0.06
3529 H 106.84341016613082 44.80806126928869 95.21456710944341 H 0.0 **** 0.06
3530 H 106.75562231718985 45.772945726273214 96.70855692245402 H 0.0 **** 0.06
3531 C 80.41328408296238 49.531624575399846 38.45272310275011 C 0.0 **** -0.24
3532 H 80.30684465001181 50.50683551786737 38.926412602199555 H 0.0 **** 0.06
3533 H 81.1062442982024 49.609434746493775 37.61390883767477 H 0.0 **** 0.06
3534 H 79.44169859031405 49.19513616013465 38.090903075947175 H 0.0 **** 0.06
3535 H 80.79983720434035 48.81587863789519 39.177888574727746 H 0.0 **** 0.06
3536 C 94.57381913041765 56.506176872454134 35.39142108970543 C 0.0 **** -0.24
3537 H 94.53037372661394 55.69224406204273 36.11556987887502 H 0.0 **** 0.06
3538 H 95.23001089001448 57.29183548469699 35.76753349616985 H 0.0 **** 0.06
3539 H 93.57305259224 56.90900845389156 35.23803085670676 H 0.0 **** 0.06
3540 H 94.96307913202682 56.128888122815226 34.44596544029565 H 0.0 **** 0.06
3541 C 21.42620943831824 73.7904419117971 72.86949518678182 C 0.0 **** -0.24
3542 H 20.371147510096193 73.64312011381804 73.09945420270594 H 0.0 **** 0.06
3543 H 21.796682062267536 74.66331934714229 73.40631222116326 H 0.0 **** 0.06
3544 H 21.545655471211745 73.94435277383745 71.7969688909069 H 0.0 **** 0.06
3545 H 21.990185556653387 72.90888425276522 73.17473050870046 H 0.0 **** 0.06
3546 C 60.603508456431996 115.49193475445081 57.62909513774386 C 0.0 **** -0.24
3547 H 60.535100830107524 116.56908289135202 57.78167576557638 H 0.0 **** 0.06
3548 H 59.69822530619689 115.13650396726158 57.13607589372509 H 0.0 **** 0.06
3549 H 60.71110539712771 114.99556047886558 58.59437909803279 H 0.0 **** 0.06
3550 H 61.46884008218319 115.26790153416356 57.00683896926708 H 0.0 **** 0.06
3551 C 98.47152421200633 109.17806839505135 58.23638706249913 C 0.0 **** -0.24
3552 H 99.2949499147515 109.49123429897548 58.87867579292447 H 0.0 **** 0.06
3553 H 97.98661669561562 108.30267442097394 58.670323392549264 H 0.0 **** 0.06
3554 H 98.85628546017983 108.92871707770172 57.2484988375422 H 0.0 **** 0.06
3555 H 97.74894153354609 109.98995831779231 58.15111921174264 H 0.0 **** 0.06
3556 C 95.37253276650368 68.71530065092203 114.77310412294125 C 0.0 **** -0.24
3557 H 95.10733833657842 67.937240980666 115.48886079449358 H 0.0 **** 0.06
3558 H 94.48802629458014 69.30882596123597 114.53793681006175 H 0.0 **** 0.06
3559 H 95.75483060070621 68.25604377512467 113.86233579079226 H 0.0 **** 0.06
3560 H 96.13866585825595 69.35972412203094 115.20501159980915 H 0.0 **** 0.06
3561 C 51.203666549301346 101.33394127653173 27.068059536918646 C 0.0 **** -0.24
3562 H 50.771909120630966 100.43250887688941 27.503942269056132 H 0.0 **** 0.06
3563 H 51.75194478614395 101.88169362418796 27.83465650189779 H 0.0 **** 0.06
3564 H 50.4064853088077 101.96225326094714 26.67151112712309 H 0.0 **** 0.06
3565 H 51.88362647383269 101.05859675856016 26.262167841815533 H 0.0 **** 0.06
3566 C 111.21696872555337 80.08544728253523 107.29329928720277 C 0.0 **** -0.24
3567 H 110.95371513301555 79.04025642452967 107.12810176161183 H 0.0 **** 0.06
3568 H 112.30024283765799 80.17633014602609 107.38609575963501 H 0.0 **** 0.06
3569 H 110.7422669609388 80.43900738534268 108.20866809303715 H 0.0 **** 0.06
3570 H 110.87235841265695 80.68385166055594 106.45025156811275 H 0.0 **** 0.06
3571 C 87.8522351639783 60.69897827666749 9.63902561724403 C 0.0 **** -0.24
3572 H 88.72417736296033 60.39181548159736 10.21629189876819 H 0.0 **** 0.06
3573 H 88.03957633475531 61.67321416830451 9.187303050046879 H 0.0 **** 0.06
3574 H 86.98518113370783 60.76340944875206 10.297039699975102 H 0.0 **** 0.06
3575 H 87.65933971142593 59.96565197721033 8.854981276684796 H 0.0 **** 0.06
3576 C 99.09589175479532 38.30189615131337 102.17599472842059 C 0.0 **** -0.24
3577 H 99.80388098551936 37.80633078774886 101.51235045194602 H 0.0 **** 0.06
3578 H 98.11706275397626 37.83194445418803 102.07926957230603 H 0.0 **** 0.06
3579 H 99.02197520459542 39.35562740863776 101.90733075823056 H 0.0 **** 0.06
3580 H 99.44207157332862 38.21413773133031 103.2063570961567 H 0.0 **** 0.06
3581 C 109.53407913287461 108.85320210381391 16.63572491908016 C 0.0 **** -0.24
3582 H 110.2976849930923 108.0786025484003 16.71265492036804 H 0.0 **** 0.06
3583 H 109.75185176322194 109.4934782653858 15.779877869640188 H 0.0 **** 0.06
3584 H 109.53034802300951 109.45093936383182 17.546534850590817 H 0.0 **** 0.06
3585 H 108.5575886119868 108.3872987362849 16.501289427915026 H 0.0 **** 0.06
3586 C 97.85382745083103 4.698080326209151 1.4058613047891129 C 0.0 **** -0.24
3587 H 98.33217335204115 5.632387060225426 1.1127390524898146 H 0.0 **** 0.06
3588 H 97.67438482155411 4.088341301632283 0.519963309363348 H 0.0 **** 0.06
3589 H 96.90494862129484 4.915017868606981 1.8972650793286903 H 0.0 **** 0.06
3590 H 98.50410448332325 4.158085456607523 2.0942702607703723 H 0.0 **** 0.06
3591 C 15.282443773067396 2.835040399146976 13.457822953743232 C 0.0 **** -0.24
3592 H 16.083656993608063 3.549118915272345 13.651943750004307 H 0.0 **** 0.06
3593 H 14.31932210958935 3.335713827034425 13.55292442412997 H 0.0 **** 0.06
3594 H 15.341784934214303 2.019368069390339 14.178985818562865 H 0.0 **** 0.06
3595 H 15.387641553505972 2.4366539707427535 12.448702923851158 H 0.0 **** 0.06
3596 C 9.634701961485234 31.50527854615902 42.35137347596526 C 0.0 **** -0.24
3597 H 9.525414047921458 30.544271988024036 41.84832265742182 H 0.0 **** 0.06
3598 H 10.620438622459403 31.563943886986777 42.81283112819102 H 0.0 **** 0.06
3599 H 8.866463674867134 31.603132670266135 43.11858666365532 H 0.0 **** 0.06
3600 H 9.525209870255253 32.3104266477128 41.62436755458725 H 0.0 **** 0.06
3601 C 74.64188334624026 17.929747463214483 7.139456279614421 C 0.0 **** -0.24
3602 H 74.22324043593903 17.619113492879364 8.096546236579172 H 0.0 **** 0.06
3603 H 73.95639180665603 18.621807178849565 6.649592733715679 H 0.0 **** 0.06
3604 H 74.78959554410125 17.054577091913018 6.5062655387297355 H 0.0 **** 0.06
3605 H 75.5999990739594 18.423194699556575 7.305211157654469 H 0.0 **** 0.06
3606 C 34.173675428305785 65.65804694950465 67.9119298726255 C 0.0 **** -0.24
3607 H 34.47324353260984 64.69786795619476 68.33266237651034 H 0.0 **** 0.06
3608 H 34.87910937934413 66.42851927769951 68.22680765477487 H 0.0 **** 0.06
3609 H 33.175110172075335 65.91375018268525 68.26697897722244 H 0.0 **** 0.06
3610 H 34.16808410527551 65.59277721183173 66.82469942162358 H 0.0 **** 0.06
3611 C 16.25324820529812 6.903520972730917 3.438209274171413 C 0.0 **** -0.24
3612 H 15.639720597019277 7.0453820976818236 4.327071898426993 H 0.0 **** 0.06
3613 H 16.748923245910703 5.934492321816265 3.4896022624876935 H 0.0 **** 0.06
3614 H 17.003004374051102 7.69308739057837 3.384710387023688 H 0.0 **** 0.06
3615 H 15.621526085907874 6.942421166217997 2.55092381883739 H 0.0 **** 0.06
3616 C 114.64343870545827 9.572222662715404 57.81540984833026 C 0.0 **** -0.24
3617 H 114.5803569496901 9.12700170381359 56.82212157953984 H 0.0 **** 0.06
3618 H 113.73184296355396 9.351932837250061 58.37049463891594 H 0.0 **** 0.06
3619 H 114.76020334586792 10.65193553363747 57.721475313021756 H 0.0 **** 0.06
3620 H 115.50130874423141 9.158475811913561 58.34458282579908 H 0.0 **** 0.06
3621 C 110.66045932364338 85.79234977672084 60.96117896678504 C 0.0 **** -0.24
3622 H 111.03385326120925 86.16522437544272 60.00645483879248 H 0.0 **** 0.06
3623 H 111.1671039396711 84.85896045456222 61.2076504493877 H 0.0 **** 0.06
3624 H 109.58745002038913 85.61652034714594 60.88864919257048 H 0.0 **** 0.06
3625 H 110.8558916970995 86.5295840379652 61.7401869331656 H 0.0 **** 0.06
3626 C 115.00924998332334 71.56261167863984 86.3788104807997 C 0.0 **** -0.24
3627 H 114.65688166912813 70.86932862380267 85.6147982067686 H 0.0 **** 0.06
3628 H 115.7895687239837 72.19888668395208 85.96038560622657 H 0.0 **** 0.06
3629 H 115.41244617922999 70.99968569714802 87.2216555554877 H 0.0 **** 0.06
3630 H 114.17850764310822 72.18088209499852 86.71866544783768 H 0.0 **** 0.06
3631 C 6.207751472592548 66.75182759673783 23.315815526206507 C 0.0 **** -0.24
3632 H 5.751259603567178 66.43703675237322 24.254709291738493 H 0.0 **** 0.06
3633 H 6.594095999694304 65.87890726148561 22.789542255710387 H 0.0 **** 0.06
3634 H 7.02640571676983 67.44237641693702 23.5239146318454 H 0.0 **** 0.06
3635 H 5.460705275683836 67.2496524476053 22.697425710901825 H 0.0 **** 0.06
3636 C 13.355674343311136 80.60679039282275 31.34310540642211 C 0.0 **** -0.24
3637 H 13.019166606554165 79.68073558127136 31.808462840796807 H 0.0 **** 0.06
3638 H 13.31218706308141 81.41590569864564 32.07210597341316 H 0.0 **** 0.06
3639 H 12.710494244648146 80.84364022513762 30.497553925770248 H 0.0 **** 0.06
3640 H 14.381533944453679 80.48523239440772 30.99520270239495 H 0.0 **** 0.06
3641 C 71.45215738019257 58.53897396017521 103.20725631006641 C 0.0 **** -0.24
3642 H 71.00081302517907 57.54729470422251 103.23488001855397 H 0.0 **** 0.06
3643 H 70.70693571224382 59.28435865560317 103.48739547395391 H 0.0 **** 0.06
3644 H 71.81343429583791 58.74577807939818 102.19979335284201 H 0.0 **** 0.06
3645 H 72.28621824048186 58.57809407344581 103.90755169325537 H 0.0 **** 0.06
3646 C 23.220860455527884 108.87765687910493 28.472188783753637 C 0.0 **** -0.24
3647 H 23.200249079210636 107.84498476697682 28.123752215343146 H 0.0 **** 0.06
3648 H 22.962668448973346 109.54299765884025 27.648019434169136 H 0.0 **** 0.06
3649 H 24.220065362302876 109.11783216322615 28.83520796852502 H 0.0 **** 0.06
3650 H 22.500925911189398 109.0027154003822 29.28059965483954 H 0.0 **** 0.06
3651 C 75.13730721395822 92.11028405137449 83.86993313517831 C 0.0 **** -0.24
3652 H 74.57406422208277 92.3811118393509 82.9779241154238 H 0.0 **** 0.06
3653 H 76.14236782453591 91.79577876784563 83.5845889831366 H 0.0 **** 0.06
3654 H 74.63246199223471 91.29203198385812 84.38419323843007 H 0.0 **** 0.06
3655 H 75.20172647755676 92.97292287300127 84.53462636541656 H 0.0 **** 0.06
3656 C 79.5173119863902 58.29509296623729 49.18536448567139 C 0.0 **** -0.24
3657 H 78.65484883790943 57.631970311604505 49.24383801385679 H 0.0 **** 0.06
3658 H 80.19640113085481 58.08068012910388 50.01024847321857 H 0.0 **** 0.06
3659 H 79.18415233859679 59.331321222151246 49.248572414123174 H 0.0 **** 0.06
3660 H 80.03357335280845 58.135975428074346 48.23793562700741 H 0.0 **** 0.06
3661 C 79.69113117451161 36.506544487614605 107.70546441501632 C 0.0 **** -0.24
3662 H 80.10064034224092 37.151962185677036 106.9292352502256 H 0.0 **** 0.06
3663 H 79.92017216799047 36.92556684090815 108.6850750624954 H 0.0 **** 0.06
3664 H 80.13362391062884 35.5133815915942 107.62258348852323 H 0.0 **** 0.06
3665 H 78.60971213694688 36.43345545014776 107.58370851585057 H 0.0 **** 0.06
3666 C 45.257529819286965 107.48898643585379 19.193230231210066 C 0.0 **** -0.24
3667 H 44.874282131954594 107.09520269851438 18.251497693591176 H 0.0 **** 0.06
3668 H 46.3330461126511 107.3216841528157 19.246504730566897 H 0.0 **** 0.06
3669 H 44.76860456351377 106.97967378883249 20.02461062756123 H 0.0 **** 0.06
3670 H 45.051062110202906 108.55758543822218 19.250289792372143 H 0.0 **** 0.06
3671 C 91.80369232946597 11.642795427925357 89.95493278328729 C 0.0 **** -0.24
3672 H 91.42921120973017 12.185791342884297 90.82400355719102 H 0.0 **** 0.06
3673 H 91.9377394750561 12.336599805020988 89.12425325735455 H 0.0 **** 0.06
3674 H 91.08713253943245 10.871269029523098 89.67316756540555 H 0.0 **** 0.06
3675 H 92.7596714489897 11.180639516308915 90.20059795245606 H 0.0 **** 0.06
3676 C 20.17174399907327 77.34718591258448 34.474662414992906 C 0.0 **** -0.24
3677 H 20.839679360304814 78.02604479025874 35.003924613585696 H 0.0 **** 0.06
3678 H 19.756930050492343 77.85165035087654 33.60165691312119 H 0.0 **** 0.06
3679 H 19.361364978680513 77.04426173010388 35.13903462803984 H 0.0 **** 0.06
3680 H 20.72800663353837 76.46540185051522 34.15579201088883 H 0.0 **** 0.06
3681 C 30.80011654434361 15.31510409816687 67.82291449213913 C 0.0 **** -0.24
3682 H 30.003167657923143 15.813029419895571 68.37434113745313 H 0.0 **** 0.06
3683 H 31.689800926927262 15.252110325523276 68.44846222413207 H 0.0 **** 0.06
3684 H 31.02815074097009 15.883649531266116 66.9214417870123 H 0.0 **** 0.06
3685 H 30.477557495924742 14.311492880816019 67.54652940906861 H 0.0 **** 0.06
3686 C 20.448670160526007 63.53944389140946 7.745069499914193 C 0.0 **** -0.24
3687 H 21.305204812321335 63.263471964081646 7.131287493893911 H 0.0 **** 0.06
3688 H 19.56387649905315 63.62771720896626 7.114581945876665 H 0.0 **** 0.06
3689 H 20.644245061440017 64.49324360742264 8.233767812245066 H 0.0 **** 0.06
3690 H 20.281130627967087 62.77114139191508 8.500318045582606 H 0.0 **** 0.06
3691 C 82.90206469539442 69.98485749252578 6.318867719707981 C 0.0 **** -0.24
3692 H 83.71338393913399 70.03404353197278 5.592630588304928 H 0.0 **** 0.06
3693 H 81.99415490988305 69.63774350257493 5.825737670233309 H 0.0 **** 0.06
3694 H 82.73157475828566 70.9748286607332 6.74105698888124 H 0.0 **** 0.06
3695 H 83.17063613637521 69.29197117681778 7.116303290794519 H 0.0 **** 0.06
3696 C 59.59573913944453 22.872416570338885 7.7408621578736785 C 0.0 **** -0.24
3697 H 60.27219384578497 22.95827110422286 8.59115715110218 H 0.0 **** 0.06
3698 H 58.88044594356522 23.694675045382212 7.760792060266098 H 0.0 **** 0.06
3699 H 59.06144467321718 21.923758641637164 7.795617339218637 H 0.0 **** 0.06
3700 H 60.17032495322171 22.911470931224073 6.815064938259724 H 0.0 **** 0.06
3701 C 62.63054105815675 18.364391756652076 17.84677167812177 C 0.0 **** -0.24
3702 H 62.52723339333187 17.80806957129517 16.914703143624564 H 0.0 **** 0.06
3703 H 62.57211135569318 19.43258884255559 17.640697801216874 H 0.0 **** 0.06
3704 H 63.59420543594365 18.133206474120474 18.301950712581316 H 0.0 **** 0.06
3705 H 61.829311197949494 18.080900604597392 18.52891902794792 H 0.0 **** 0.06
3706 C 40.39161611265115 47.46447420422001 0.16194813357483895 C 0.0 **** -0.24
3707 H 40.49784983138957 47.74870396463348 1.2088446863771196 H 0.0 **** 0.06
3708 H 41.04050488562604 48.09104462200179 -0.4509111413645428 H 0.0 **** 0.06
3709 H 39.35505331659817 47.60157572939431 -0.14833460392711117 H 0.0 **** 0.06
3710 H 40.67290622297725 46.41866969571262 0.03895484204258537 H 0.0 **** 0.06
3711 C 62.24104972629762 69.11416429134702 46.250625171494555 C 0.0 **** -0.24
3712 H 62.25744242546703 68.22849686073087 45.61476898785627 H 0.0 **** 0.06
3713 H 62.47141254046048 68.82778592229161 47.277520513046355 H 0.0 **** 0.06
3714 H 61.252395820750124 69.57019357350704 46.21364913841691 H 0.0 **** 0.06
3715 H 62.98458331730518 69.82868746278362 45.89687241212042 H 0.0 **** 0.06
3716 C 72.38615305983592 42.21639326492493 98.18115554645492 C 0.0 **** -0.24
3717 H 73.38743096747345 42.535032430474644 97.8930372877313 H 0.0 **** 0.06
3718 H 72.37490029684969 41.97268333207779 99.24372197947719 H 0.0 **** 0.06
3719 H 72.10437134867007 41.3365584034168 97.6034374573877 H 0.0 **** 0.06
3720 H 71.67857215319927 43.02216527077337 97.98532577379046 H 0.0 **** 0.06
3721 C 7.368030435589972 29.004518966206632 2.43680011623948 C 0.0 **** -0.24
3722 H 8.382772380548218 28.613019083668632 2.5045360039475977 H 0.0 **** 0.06
3723 H 6.688298808392702 28.204074639999334 2.145578003901793 H 0.0 **** 0.06
3724 H 7.3344307927625465 29.7996097694936 1.690923907013346 H 0.0 **** 0.06
3725 H 7.067107650845827 29.40370963975633 3.405615300422374 H 0.0 **** 0.06
3726 C 4.620034847432308 54.525167460508214 2.0670003431717845 C 0.0 **** -0.24
3727 H 4.40675277822686 55.18795076337031 1.2283910164991596 H 0.0 **** 0.06
3728 H 5.49728310616824 54.887525791142735 2.6026433853596984 H 0.0 **** 0.06
3729 H 4.809568370100621 53.519084926177754 1.6950508314228045 H 0.0 **** 0.06
3730 H 3.7641941233088545 54.507639367325794 2.7423358282699155 H 0.0 **** 0.06
3731 C 102.17166014262614 84.22448509005172 35.92596085907856 C 0.0 **** -0.24
3732 H 102.13271536606021 84.87948596186237 35.054533397801606 H 0.0 **** 0.06
3733 H 102.5151617545024 84.79198928097456 36.79116269678174 H 0.0 **** 0.06
3734 H 102.86295036050322 83.40392764254005 35.73184772674628 H 0.0 **** 0.06
3735 H 101.17798064679141 83.82367641386165 36.123470249494815 H 0.0 **** 0.06
3736 C 45.645254007081945 8.830612143670066 104.24724342517669 C 0.0 **** -0.24
3737 H 44.98807697381711 8.073455512264701 103.81894940807163 H 0.0 **** 0.06
3738 H 46.12575951073928 8.4308295291805 105.1406889606175 H 0.0 **** 0.06
3739 H 45.06116601212852 9.711352956813045 104.51166224670055 H 0.0 **** 0.06
3740 H 46.40704543279181 9.105268050386243 103.51642565685904 H 0.0 **** 0.06
3741 C 57.96117236223205 86.99552683397599 97.50883595535825 C 0.0 **** -0.24
3742 H 58.70899738554664 87.65676781674404 97.94636954358378 H 0.0 **** 0.06
3743 H 57.14057533818223 86.85969474891255 98.2141378693667 H 0.0 **** 0.06
3744 H 58.414421646103236 86.02966599160936 97.28888279143003 H 0.0 **** 0.06
3745 H 57.57973360344282 87.43636072708108 96.58817398214117 H 0.0 **** 0.06
3746 C 78.54882395390828 107.0328829660636 87.99771122430276 C 0.0 **** -0.24
3747 H 78.37213030459002 108.08857496606868 88.20555577007792 H 0.0 **** 0.06
3748 H 79.41326978425877 106.93239031399901 87.34130190449034 H 0.0 **** 0.06
3749 H 77.670789850934 106.60686414891865 87.51261369199202 H 0.0 **** 0.06
3750 H 78.73891045018044 106.50666087707953 88.93342540054483 H 0.0 **** 0.06
3751 C 111.96792461021644 69.57554496874256 1.413177416586933 C 0.0 **** -0.24
3752 H 112.47958398506654 70.49282526025652 1.1216879509351259 H 0.0 **** 0.06
3753 H 110.91836419754844 69.637763385856 1.1245385413818667 H 0.0 **** 0.06
3754 H 112.04147095211515 69.4467899657282 2.4927489067976296 H 0.0 **** 0.06
3755 H 112.4327117227228 68.7266239957545 0.912513224242673 H 0.0 **** 0.06
3756 C 0.9739613904687516 83.87560045510662 11.550076378224531 C 0.0 **** -0.24
3757 H 1.451656893026323 84.70757606205086 12.06884051485639 H 0.0 **** 0.06
3758 H 1.6405103615515912 83.50428142824498 10.771444101478096 H 0.0 **** 0.06
3759 H 0.04200614998662111 84.21619354879084 11.100093859304224 H 0.0 **** 0.06
3760 H 0.764174829483224 83.077460681487 12.261678103634267 H 0.0 **** 0.06
3761 C 105.40394846487133 25.54526164133148 25.344044016405405 C 0.0 **** -0.24
3762 H 105.38828038889814 25.320176967915245 26.40992810655098 H 0.0 **** 0.06
3763 H 104.56449522775847 25.051151098843718 24.855350285301654 H 0.0 **** 0.06
3764 H 106.3381070306152 25.18669931543559 24.911215629381218 H 0.0 **** 0.06
3765 H 105.32674177956878 26.622909914966215 25.198058029363438 H 0.0 **** 0.06
3766 C 0.34482663659375135 26.03969666243563 68.32351460517026 C 0.0 **** -0.24
3767 H -0.3973991150299838 25.712776905516932 69.05175148998728 H 0.0 **** 0.06
3768 H 1.2958115614852233 25.545382005733302 68.52719662821292 H 0.0 **** 0.06
3769 H 0.4730525734906337 27.119662050440866 68.3960502497961 H 0.0 **** 0.06
3770 H 0.007301880271512573 25.77992215486165 67.31984741170766 H 0.0 **** 0.06
3771 C 88.72704613782317 87.57534360101792 4.219278238616113 C 0.0 **** -0.24
3772 H 88.88633330355991 86.83772041326856 3.432506857128942 H 0.0 **** 0.06
3773 H 88.40383624851488 88.51682932930527 3.775429693148581 H 0.0 **** 0.06
3774 H 89.65744446136338 87.7309325898292 4.765787711610031 H 0.0 **** 0.06
3775 H 87.9599807469158 87.21413435256505 4.9046388343737135 H 0.0 **** 0.06
3776 C 31.798989263457486 112.36243051031803 115.19394496994303 C 0.0 **** -0.24
3777 H 32.03503332791706 112.21113966726409 116.24800802442418 H 0.0 **** 0.06
3778 H 30.716845410616486 112.38994258761072 115.06455275202924 H 0.0 **** 0.06
3779 H 32.21487708054002 111.54285238011867 114.60829785716871 H 0.0 **** 0.06
3780 H 32.230441983382974 113.30451404639314 114.85753652167412 H 0.0 **** 0.06
3781 C 29.116350508927894 6.103257140458879 83.68513636812608 C 0.0 **** -0.24
3782 H 28.635526877511666 5.686952824110676 84.57073443981207 H 0.0 **** 0.06
3783 H 29.877053034056985 6.8225534145196605 83.98995457922314 H 0.0 **** 0.06
3784 H 28.36932208227114 6.603120383501874 83.06830670063232 H 0.0 **** 0.06
3785 H 29.582973856131446 5.300477592953001 83.11394093378458 H 0.0 **** 0.06
3786 C 0.8238323071762323 104.94581252446946 87.87729818245862 C 0.0 **** -0.24
3787 H -0.20358883090646884 104.87914176363135 87.52017447995121 H 0.0 **** 0.06
3788 H 0.9956780721645657 105.93302436328129 88.30678904345274 H 0.0 **** 0.06
3789 H 1.5090803707138036 104.78604919277566 87.04455791767845 H 0.0 **** 0.06
3790 H 0.9932193754831218 104.18410346211171 88.63878877134334 H 0.0 **** 0.06
3791 C 38.986411030834745 11.596068075285615 105.59543595541868 C 0.0 **** -0.24
3792 H 40.014138605600635 11.95988012644051 105.59833516872743 H 0.0 **** 0.06
3793 H 38.822423133690506 10.963679796975512 106.46906613985004 H 0.0 **** 0.06
3794 H 38.80927579581953 11.016002962388598 104.68930893681289 H 0.0 **** 0.06
3795 H 38.301056715889786 12.44293832504593 105.62558194141673 H 0.0 **** 0.06
3796 C 3.658700929651694 20.97262707171808 7.167633386455776 C 0.0 **** -0.24
3797 H 4.444245074073372 21.381287045159354 7.803755240571235 H 0.0 **** 0.06
3798 H 2.984876747426002 20.36196721361108 7.7691083220843495 H 0.0 **** 0.06
3799 H 4.1072263622296195 20.35736888093618 6.387162444149368 H 0.0 **** 0.06
3800 H 3.0993634100568297 21.78887689160436 6.710906659433732 H 0.0 **** 0.06
3801 C 56.839812802141964 7.201240430990168 59.06524797287608 C 0.0 **** -0.24
3802 H 56.05300604890746 6.502915807553592 58.781015015891796 H 0.0 **** 0.06
3803 H 57.651474968563036 7.149281635139687 58.33815892613548 H 0.0 **** 0.06
3804 H 57.21881715639137 6.937642139986565 60.053013245962816 H 0.0 **** 0.06
3805 H 56.43694412595647 8.213129742821167 59.08902463718583 H 0.0 **** 0.06
3806 C 79.83006993325938 46.983109431264154 49.54926138925805 C 0.0 **** -0.24
3807 H 80.1189631900568 48.01130371248286 49.765135685065786 H 0.0 **** 0.06
3808 H 78.7903655324273 46.830368546609066 49.83896907522541 H 0.0 **** 0.06
3809 H 80.46809128516185 46.30019309596156 50.10922167804665 H 0.0 **** 0.06
3810 H 79.94117409327012 46.79147189947207 48.48218620243472 H 0.0 **** 0.06
3811 C 4.177085940612557 64.93357707166903 36.21326426521293 C 0.0 **** -0.24
3812 H 4.730218462244949 63.99888218452581 36.11467671345477 H 0.0 **** 0.06
3813 H 3.129759481296844 64.76209503390474 35.96432298292868 H 0.0 **** 0.06
3814 H 4.59564022451184 65.67625049531512 35.533294333019455 H 0.0 **** 0.06
3815 H 4.254092599457209 65.29473175120543 37.238393416949805 H 0.0 **** 0.06
3816 C 6.599732185776844 82.35525963704976 51.21210620876127 C 0.0 **** -0.24
3817 H 6.467135032938728 81.53088163068873 50.51097320448241 H 0.0 **** 0.06
3818 H 5.6619402409912425 82.541344379332 51.734577482321356 H 0.0 **** 0.06
3819 H 6.896101577056811 83.25131270238302 50.666442700323614 H 0.0 **** 0.06
3820 H 7.374000141687645 82.09686905622067 51.93350894880882 H 0.0 **** 0.06
3821 C 51.717418850107585 73.3694286265893 88.76139315603359 C 0.0 **** -0.24
3822 H 52.60644767181379 72.97737990902101 89.25480786897538 H 0.0 **** 0.06
3823 H 51.92597941519592 73.51941910588036 87.70144033628443 H 0.0 **** 0.06
3824 H 51.441123811487216 74.32106917640209 89.21545798783468 H 0.0 **** 0.06
3825 H 50.8966325001105 72.66114709786032 88.874090072866 H 0.0 **** 0.06
3826 C 68.93273821332821 34.630339414708374 19.97926100777076 C 0.0 **** -0.24
3827 H 69.95794963728721 34.93829172461335 20.18637572044082 H 0.0 **** 0.06
3828 H 68.81124643598139 33.57801473358478 20.2362494757443 H 0.0 **** 0.06
3829 H 68.71781779480841 34.773016602337805 18.919696450150667 H 0.0 **** 0.06
3830 H 68.24566756409271 35.23250303664622 20.57338340567398 H 0.0 **** 0.06
3831 C 10.176285742728417 104.33932502700095 5.836500403617663 C 0.0 **** -0.24
3832 H 9.779438718017321 103.86501484978486 6.734486979627036 H 0.0 **** 0.06
3833 H 11.063661670289413 103.79978543289218 5.502951846642361 H 0.0 **** 0.06
3834 H 10.441023563457051 105.3722917007216 6.059361831013007 H 0.0 **** 0.06
3835 H 9.421009804526687 104.31852769207298 5.0509832037392925 H 0.0 **** 0.06
3836 C 55.047865777309056 114.93839445102134 52.82496188882868 C 0.0 **** -0.24
3837 H 55.2994455689028 114.74544841841622 51.78262944324081 H 0.0 **** 0.06
3838 H 54.57080460430677 114.05619753357122 53.25258067361267 H 0.0 **** 0.06
3839 H 54.36364487251629 115.78494758316546 52.882919682462045 H 0.0 **** 0.06
3840 H 55.95638909663603 115.16620624902785 53.38164821563413 H 0.0 **** 0.06
3841 C 106.8668133629163 68.43025210814653 47.820720683506856 C 0.0 **** -0.24
3842 H 106.83247560856955 68.56748119020108 46.740147860425736 H 0.0 **** 0.06
3843 H 105.88482329337185 68.64030200093578 48.24468542721877 H 0.0 **** 0.06
3844 H 107.60149359401328 69.11170836193168 48.25037045063696 H 0.0 **** 0.06
3845 H 107.14869411098869 67.40248724026054 48.04774299189651 H 0.0 **** 0.06
3846 C 24.30600065220915 104.97552139644311 48.471840812182656 C 0.0 **** -0.24
3847 H 23.974959128596993 104.18197673602262 47.80034170148 H 0.0 **** 0.06
3848 H 24.420022680185184 104.57440726491802 49.47837591958793 H 0.0 **** 0.06
3849 H 23.56615093738384 105.77553782536565 48.47962738922307 H 0.0 **** 0.06
3850 H 25.262409288766833 105.36763420532881 48.126299778652715 H 0.0 **** 0.06
3851 C 33.1658301786708 37.91454115290526 54.645777618668276 C 0.0 **** -0.24
3852 H 32.73068510482938 36.92183188268086 54.52762660377728 H 0.0 **** 0.06
3853 H 32.37023196649211 38.659579566428874 54.664157444580155 H 0.0 **** 0.06
3854 H 33.836588816063 38.11829891168543 53.81097273525715 H 0.0 **** 0.06
3855 H 33.7263030825973 37.95632511958621 55.57924520195016 H 0.0 **** 0.06
3856 C 18.27161938663795 16.05284964771016 48.67628344239529 C 0.0 **** -0.24
3857 H 18.206258861489715 17.114184105683705 48.91766027076724 H 0.0 **** 0.06
3858 H 19.182506970552197 15.637418840965609 49.106927829988905 H 0.0 **** 0.06
3859 H 18.289856891531144 15.928043183591228 47.59396729199128 H 0.0 **** 0.06
3860 H 17.40519425213614 15.534291920696973 49.087266345785636 H 0.0 **** 0.06
3861 C 75.8574353775241 39.462370531766865 36.492582167792705 C 0.0 **** -0.24
3862 H 75.47818746991999 40.18615239418939 37.213639978603965 H 0.0 **** 0.06
3863 H 76.6179350309107 38.84166760446186 36.96739977819374 H 0.0 **** 0.06
3864 H 76.29509800896875 39.989532887104396 35.645154414698084 H 0.0 **** 0.06
3865 H 75.03829964942616 38.83226720328533 36.145524493923176 H 0.0 **** 0.06
3866 C 77.81417123898073 26.81196015586322 38.58841444820803 C 0.0 **** -0.24
3867 H 77.40633608714579 25.850430376140082 38.90053547656305 H 0.0 **** 0.06
3868 H 78.26607911180156 27.31051303164405 39.446033168310805 H 0.0 **** 0.06
3869 H 77.01290596585518 27.43219948713444 38.18661513046186 H 0.0 **** 0.06
3870 H 78.57152762117235 26.65379980222039 37.82006542856959 H 0.0 **** 0.06
3871 C 71.37360699787558 68.69557398050046 77.92942932770416 C 0.0 **** -0.24
3872 H 71.5563348841763 67.74436284312108 78.42870120709267 H 0.0 **** 0.06
3873 H 72.29769156245243 69.04575321853679 77.46702376740438 H 0.0 **** 0.06
3874 H 71.03140388882719 69.42906432948257 78.65946391038457 H 0.0 **** 0.06
3875 H 70.61161875701328 68.56229363459062 77.16185405872261 H 0.0 **** 0.06
3876 C 2.360138924555045 99.35760194104171 110.29038779763538 C 0.0 **** -0.24
3877 H 1.3718732166740324 99.38203269252227 109.83134577724078 H 0.0 **** 0.06
3878 H 3.0900654853739695 99.00548246711782 109.56153414930664 H 0.0 **** 0.06
3879 H 2.3466524287934334 98.68296321197624 111.14633303291146 H 0.0 **** 0.06
3880 H 2.631051973344597 100.35963628293047 110.62129834041365 H 0.0 **** 0.06
3881 C 26.277579345553562 69.18083882375014 85.7516101667787 C 0.0 **** -0.24
3882 H 26.433355939031173 68.92534282864041 86.80005093364967 H 0.0 **** 0.06
3883 H 26.576415742776163 68.33961180067399 85.12422862578501 H 0.0 **** 0.06
3884 H 26.877582571319948 70.05430901613214 85.49794412526255 H 0.0 **** 0.06
3885 H 25.22406082967379 69.40241605881621 85.58521083019869 H 0.0 **** 0.06
3886 C 10.573049859662689 42.88098095250217 61.587840239239654 C 0.0 **** -0.24
3887 H 9.702066569045428 42.60324519597515 62.181042131265656 H 0.0 **** 0.06
3888 H 10.355083730963202 42.732665718312774 60.52948916417159 H 0.0 **** 0.06
3889 H 11.420784991241945 42.25867682922956 61.87533859697646 H 0.0 **** 0.06
3890 H 10.814289837394199 43.928822336196674 61.766348664726365 H 0.0 **** 0.06
3891 C 86.09803034420781 37.55770117856571 40.1092673835073 C 0.0 **** -0.24
3892 H 86.79361734166733 37.89614349948211 39.34142164961179 H 0.0 **** 0.06
3893 H 86.56735317429623 37.64678006172723 41.08876805244918 H 0.0 **** 0.06
3894 H 85.83299778358901 36.516746597137455 39.92512386721272 H 0.0 **** 0.06
3895 H 85.19793102555184 38.17198162277643 40.07969842858955 H 0.0 **** 0.06
3896 C 78.22419504366798 45.536519212563576 53.86889036746834 C 0.0 **** -0.24
3897 H 77.32957900789148 46.116912501660494 54.09146452318032 H 0.0 **** 0.06
3898 H 79.06938230897254 45.944141506939445 54.42439208788103 H 0.0 **** 0.06
3899 H 78.43309881773448 45.58802824595651 52.79929945838277 H 0.0 **** 0.06
3900 H 78.06472157757435 44.497759666487696 54.15830422251352 H 0.0 **** 0.06
3901 C 21.70110629497742 97.84335242215559 114.5467072428498 C 0.0 **** -0.24
3902 H 22.649346755195324 98.37939972253366 114.60537563692084 H 0.0 **** 0.06
3903 H 21.855894485891213 96.8848359588643 114.05049820715148 H 0.0 **** 0.06
3904 H 20.98370606945616 98.43533078760566 113.97979191058302 H 0.0 **** 0.06
3905 H 21.318185124387753 97.67436148644663 115.55300788344262 H 0.0 **** 0.06
3906 C 16.059523980047516 12.406927629020036 27.020878679265024 C 0.0 **** -0.24
3907 H 15.761351590164708 11.358313520620747 27.030057949542083 H 0.0 **** 0.06
3908 H 15.762988088030141 12.87609157297593 27.959260393356146 H 0.0 **** 0.06
3909 H 15.572295593720185 12.91543531284833 26.188872071665344 H 0.0 **** 0.06
3910 H 17.141279397888468 12.475911996652918 26.906388833452752 H 0.0 **** 0.06
3911 C 106.99324576412168 0.5658810491670767 53.40145102876215 C 0.0 **** -0.24
3912 H 106.06880992933816 0.799087901125823 53.92939939992442 H 0.0 **** 0.06
3913 H 106.79470611765993 0.510465410916435 52.33063931413716 H 0.0 **** 0.06
3914 H 107.3779547805393 -0.39315767718922867 53.75008309310476 H 0.0 **** 0.06
3915 H 107.7298260711522 1.3456660738969894 53.59581753096825 H 0.0 **** 0.06
3916 C 35.838614592168 106.9040813515183 55.62399943692111 C 0.0 **** -0.24
3917 H 36.11544608636456 105.89671501349135 55.31213893642109 H 0.0 **** 0.06
3918 H 35.885408093738505 106.97419452653732 56.71100730189863 H 0.0 **** 0.06
3919 H 34.823638504500366 107.12031842102425 55.28879547921861 H 0.0 **** 0.06
3920 H 36.52806812103685 107.62284975319294 55.18174347051223 H 0.0 **** 0.06
3921 C 82.91497154046665 7.131414546031323 83.95103718478424 C 0.0 **** -0.24
3922 H 81.99065743860054 6.5734461827651245 84.10185933031278 H 0.0 **** 0.06
3923 H 82.69067393271523 8.075373408518942 83.45315480035492 H 0.0 **** 0.06
3924 H 83.59610232044022 6.546539101042114 83.33260840991039 H 0.0 **** 0.06
3925 H 83.38007718478467 7.330808096917224 84.91621047458779 H 0.0 **** 0.06
3926 C 16.722295522589434 0.8184260854262391 3.3169928536631232 C 0.0 **** -0.24
3927 H 16.80941039490719 1.819456301765058 2.8938580137651115 H 0.0 **** 0.06
3928 H 17.69138670305358 0.5018466814806999 3.7041276924304043 H 0.0 **** 0.06
3929 H 16.39497072774151 0.12422688756176115 2.5433110844235216 H 0.0 **** 0.06
3930 H 15.992985619414327 0.8284932047152864 4.127520040423462 H 0.0 **** 0.06
3931 C 101.97663149113077 7.954460895357954 73.92833560537109 C 0.0 **** -0.24
3932 H 102.21207866548696 7.968546371440027 74.99306319891514 H 0.0 **** 0.06
3933 H 102.90066200971538 7.880131744407436 73.35418981966988 H 0.0 **** 0.06
3934 H 101.45415851382722 8.872449885179662 73.65991292442193 H 0.0 **** 0.06
3935 H 101.34137233450593 7.096582556110036 73.70861283642066 H 0.0 **** 0.06
3936 C 111.09866809009037 78.05482106188128 64.99857627136498 C 0.0 **** -0.24
3937 H 110.7740898275766 77.10995562557063 64.56177212834751 H 0.0 **** 0.06
3938 H 111.26069424658978 78.78364290612657 64.20482394066164 H 0.0 **** 0.06
3939 H 112.02845266040183 77.90101928405812 65.54610454545394 H 0.0 **** 0.06
3940 H 110.33197757680121 78.42219233051539 65.6799964834828 H 0.0 **** 0.06
3941 C 92.54544945084376 37.045932958479 114.13518415789576 C 0.0 **** -0.24
3942 H 92.88303173853177 37.45720912771168 113.18385631345313 H 0.0 **** 0.06
3943 H 93.14952706400345 36.17486158102412 114.3883371302262 H 0.0 **** 0.06
3944 H 91.49889448915837 36.752868405619125 114.05191691418042 H 0.0 **** 0.06
3945 H 92.65074940976632 37.80083219492772 114.91424359321786 H 0.0 **** 0.06
3946 C 38.7833167900215 35.11401984846131 109.23586950932133 C 0.0 **** -0.24
3947 H 39.545168534808035 35.743188115102654 108.77546232705754 H 0.0 **** 0.06
3948 H 39.25111288892217 34.218629295921914 109.64595749751447 H 0.0 **** 0.06
3949 H 38.04485221827077 34.828943356929074 108.48668260894459 H 0.0 **** 0.06
3950 H 38.29254548138713 35.66727258500575 110.03679429019996 H 0.0 **** 0.06
3951 C 27.13212607548217 25.928741113630373 78.88270789054947 C 0.0 **** -0.24
3952 H 27.632046357032166 25.803857253966243 79.84306005001791 H 0.0 **** 0.06
3953 H 27.032654954627247 24.95879493411688 78.39612961122758 H 0.0 **** 0.06
3954 H 27.721361622656516 26.594263355993135 78.25066338731841 H 0.0 **** 0.06
3955 H 26.14342257647676 26.35942026311774 79.04058254444533 H 0.0 **** 0.06
3956 C 52.28407202784166 30.69140503798794 39.68638858938701 C 0.0 **** -0.24
3957 H 51.84343421730364 31.67265059480703 39.512512248005834 H 0.0 **** 0.06
3958 H 52.4402121392439 30.188917084746166 38.7308427866341 H 0.0 **** 0.06
3959 H 51.613777967001624 30.095162476342793 40.305553541029155 H 0.0 **** 0.06
3960 H 53.240756278293134 30.809174075659683 40.19548903519612 H 0.0 **** 0.06
3961 C 98.5774316711604 38.03340310792666 76.02286873228113 C 0.0 **** -0.24
3962 H 99.55512033861245 37.76135084456058 75.62587886496641 H 0.0 **** 0.06
3963 H 98.16783853099211 37.19353551679529 76.58531830523879 H 0.0 **** 0.06
3964 H 97.90751787554154 38.280963885133104 75.20014723861378 H 0.0 **** 0.06
3965 H 98.68040433890168 38.89612913732665 76.68015779750921 H 0.0 **** 0.06
3966 C 8.824680026579145 97.6965352334512 66.47004994831534 C 0.0 **** -0.24
3967 H 8.061612562195464 97.24825633756977 65.8326068423951 H 0.0 **** 0.06
3968 H 8.349506205911297 98.36293512594965 67.18943825620619 H 0.0 **** 0.06
3969 H 9.523525226143661 98.26259429975065 65.85512149004518 H 0.0 **** 0.06
3970 H 9.361878085338958 96.90990657848536 67.00035475375674 H 0.0 **** 0.06
3971 C 101.18596585856238 35.794981217718885 113.93123588400795 C 0.0 **** -0.24
3972 H 101.19063069282168 36.53804977390422 113.13377496643365 H 0.0 **** 0.06
3973 H 100.28883656926715 35.17965592788019 113.84834736166621 H 0.0 **** 0.06
3974 H 101.19355351822392 36.29929691296434 114.89745255398886 H 0.0 **** 0.06
3975 H 102.06965682249924 35.16300240071837 113.84322675716226 H 0.0 **** 0.06
3976 C 95.71625758557542 95.40086098809468 37.023929295143304 C 0.0 **** -0.24
3977 H 94.87006985182202 95.1001064709306 36.406284100561294 H 0.0 **** 0.06
3978 H 96.56742639856157 94.7526645498778 36.81348302949972 H 0.0 **** 0.06
3979 H 95.44531725841796 95.31693300611522 38.07623341928823 H 0.0 **** 0.06
3980 H 95.98067374119876 96.4337896086592 36.79844516546467 H 0.0 **** 0.06
3981 C 81.37969690871145 13.910176819868468 24.667002853409258 C 0.0 **** -0.24
3982 H 80.51498238241709 14.229862773524644 24.084625579184575 H 0.0 **** 0.06
3983 H 81.09933918067158 13.070748866348481 25.30305378858472 H 0.0 **** 0.06
3984 H 81.72451414087129 14.737711611178781 25.286845405344508 H 0.0 **** 0.06
3985 H 82.17811764262288 13.604207831718384 23.991410645920894 H 0.0 **** 0.06
3986 C 91.10005274657702 74.11107831250291 47.97607593885012 C 0.0 **** -0.24
3987 H 91.34126372836991 73.85854820115287 46.94418094273687 H 0.0 **** 0.06
3988 H 91.01582416094168 75.19448399139549 48.07434277870538 H 0.0 **** 0.06
3989 H 91.89068135692305 73.74818083003993 48.63274965273759 H 0.0 **** 0.06
3990 H 90.15395960554125 73.64597174938069 48.25370199982659 H 0.0 **** 0.06
3991 C 32.65605473208512 104.57431462096086 49.32450561545372 C 0.0 **** -0.24
3992 H 31.84165376009372 104.20853429972854 48.69909265406787 H 0.0 **** 0.06
3993 H 33.581484802842475 104.07042702696393 49.0472512571516 H 0.0 **** 0.06
3994 H 32.4294000574232 104.36890969056441 50.371387226722106 H 0.0 **** 0.06
3995 H 32.76880440656813 105.64875523887966 49.180865772260546 H 0.0 **** 0.06
3996 C 45.04500739158811 49.29048610772995 19.478231457554045 C 0.0 **** -0.24
3997 H 44.28047219953423 48.898170302306596 18.807151103744275 H 0.0 **** 0.06
3998 H 44.73770831494059 50.269400763859466 19.846026129407903 H 0.0 **** 0.06
3999 H 45.988156603686924 49.38319738481579 18.940447399171035 H 0.0 **** 0.06
4000 H 45.172722171981306 48.60940186347909 20.320683737600177 H 0.0 **** 0.06
4001 C 13.154905028890482 28.283652880382704 1.0421719146367678 C 0.0 **** -0.24
4002 H 13.026539352050975 29.326892075017582 1.33033814521049 H 0.0 **** 0.06
4003 H 14.122458249423204 28.157138210817152 0.5568345720987082 H 0.0 **** 0.06
4004 H 12.361013094761688 27.997427785023177 0.3511896908552643 H 0.0 **** 0.06
4005 H 13.10828524706261 27.653645880597196 1.9302604868844355 H 0.0 **** 0.06
4006 C 70.79108491076752 89.39485043034682 50.62636560319055 C 0.0 **** -0.24
4007 H 71.36327188054332 90.3176130440583 50.723261394826764 H 0.0 **** 0.06
4008 H 70.87330217544076 89.02198501113205 49.60447501935691 H 0.0 **** 0.06
4009 H 69.74461732355755 89.59108113729248 50.85796785638841 H 0.0 **** 0.06
4010 H 71.18332858873231 88.64955940969787 51.31746304861214 H 0.0 **** 0.06
4011 C 4.521861408043122 10.040339186764271 114.57361293500199 C 0.0 **** -0.24
4012 H 4.877825972821782 9.47617708609016 115.43527230483137 H 0.0 **** 0.06
4013 H 3.4795392069958524 10.31900708756308 114.72632883208429 H 0.0 **** 0.06
4014 H 4.606581447449287 9.425502017438646 113.67735664041153 H 0.0 **** 0.06
4015 H 5.12565548510932 10.940226766516602 114.4551029021141 H 0.0 **** 0.06
4016 C 19.88173846677223 55.68247002777853 73.72145674788231 C 0.0 **** -0.24
4017 H 19.867419055616978 54.622936728273416 73.97621874280503 H 0.0 **** 0.06
4018 H 20.274297771621818 56.25232566782857 74.56418763538392 H 0.0 **** 0.06
4019 H 18.86774267543515 56.01516077451932 73.49861604123734 H 0.0 **** 0.06
4020 H 20.51515649122312 55.83834686043754 72.84950695388125 H 0.0 **** 0.06
4021 C 58.818504547845976 45.966589637318194 112.701400375086 C 0.0 **** -0.24
4022 H 57.798736710911456 45.653017997980726 112.9219630002004 H 0.0 **** 0.06
4023 H 59.36104756513677 46.12320730878818 113.63375789100155 H 0.0 **** 0.06
4024 H 58.79745725323916 46.89667204782697 112.13231308258278 H 0.0 **** 0.06
4025 H 59.3168941839882 45.19378976640522 112.11535879082686 H 0.0 **** 0.06
4026 C 33.60790313254813 42.90639089163466 9.489467490295425 C 0.0 **** -0.24
4027 H 34.48288294215757 42.763421798335045 8.8553494199451 H 0.0 **** 0.06
4028 H 32.964461118542545 42.028984489880685 9.42392408544653 H 0.0 **** 0.06
4029 H 33.05831398748154 43.786751205811214 9.155757942295452 H 0.0 **** 0.06
4030 H 33.927905910638 43.04829399729789 10.522045972512387 H 0.0 **** 0.06
4031 C 113.76106859011173 82.71125016593132 38.61958711305195 C 0.0 **** -0.24
4032 H 113.74296957920092 81.73240966158265 39.100010169265715 H 0.0 **** 0.06
4033 H 113.32728052497919 82.63289291517827 37.62185433045806 H 0.0 **** 0.06
4034 H 114.79085184377863 83.05915746456046 38.54249315551573 H 0.0 **** 0.06
4035 H 113.18090757052806 83.41773877321882 39.21298038709503 H 0.0 **** 0.06
4036 C 31.26564270665537 39.41347734445418 25.363558785772682 C 0.0 **** -0.24
4037 H 32.08281477017246 38.70221496123986 25.24354131608169 H 0.0 **** 0.06
4038 H 30.388860553560363 39.05369802824674 24.824188309217504 H 0.0 **** 0.06
4039 H 31.566792520683947 40.38231473436247 24.96355937861489 H 0.0 **** 0.06
4040 H 31.025941671453793 39.51673714917615 26.421719153894287 H 0.0 **** 0.06
4041 C 99.99498318551667 83.8006926183948 14.750097341455387 C 0.0 **** -0.24
4042 H 100.74352501231796 83.50134313292125 14.016017909289928 H 0.0 **** 0.06
4043 H 100.42017479407289 83.72974303223927 15.751967038323901 H 0.0 **** 0.06
4044 H 99.12981122255972 83.14324334677661 14.67460303316146 H 0.0 **** 0.06
4045 H 99.68857873877357 84.82842960904355 14.556640586784479 H 0.0 **** 0.06
4046 C 83.46553050735059 83.3370829934878 72.57422752708254 C 0.0 **** -0.24
4047 H 83.62539348280302 84.29595571540716 72.08256869430977 H 0.0 **** 0.06
4048 H 84.33994843591546 83.08728445748716 73.1756720948382 H 0.0 **** 0.06
4049 H 83.31008718749914 82.56352725077926 71.82056342342975 H 0.0 **** 0.06
4050 H 82.58716654756697 83.39917421876777 73.21585586893008 H 0.0 **** 0.06
4051 C 79.63926426123311 109.14000662882975 28.850521286130913 C 0.0 **** -0.24
4052 H 80.30866799409736 108.98405697229393 29.69669793445985 H 0.0 **** 0.06
4053 H 78.86143464321185 109.85052443663827 29.12819559019971 H 0.0 **** 0.06
4054 H 79.1811365399331 108.19051505169685 28.571398804866476 H 0.0 **** 0.06
4055 H 80.206642546079 109.53194977502355 28.00645493831476 H 0.0 **** 0.06
4056 C 104.59464261355458 99.31869115294393 58.24467631311339 C 0.0 **** -0.24
4057 H 105.24910487480777 98.79267391692736 57.549727708882756 H 0.0 **** 0.06
4058 H 104.89289971687519 99.0901217620247 59.26833902315923 H 0.0 **** 0.06
4059 H 103.56459555175361 99.00008019274793 58.08623505319326 H 0.0 **** 0.06
4060 H 104.67257807905976 100.39338825624384 58.075579178250166 H 0.0 **** 0.06
4061 C 79.96924519231254 102.9343548880289 89.20119793368588 C 0.0 **** -0.24
4062 H 79.55094553036781 102.20183213447399 89.89185225309257 H 0.0 **** 0.06
4063 H 79.24720988828025 103.73532821748194 89.03961714742775 H 0.0 **** 0.06
4064 H 80.19337505181363 102.44950908381176 88.25010908011336 H 0.0 **** 0.06
4065 H 80.88506735667357 103.34857311430858 89.62144846733725 H 0.0 **** 0.06
4066 C 27.283206054407287 6.704177491014548 9.437223027709777 C 0.0 **** -0.24
4067 H 27.379477432172393 5.688145014193324 9.819158029670916 H 0.0 **** 0.06
4068 H 28.26035018817737 7.064231045038696 9.112967852242122 H 0.0 **** 0.06
4069 H 26.899616243289984 7.35297280179671 10.224418070723743 H 0.0 **** 0.06
4070 H 26.594797607551698 6.710520250746583 8.591814744324779 H 0.0 **** 0.06
4071 C 17.680866155487024 106.57333713058244 16.178887137537572 C 0.0 **** -0.24
4072 H 16.884198780913323 107.29141255300632 16.3752143617059 H 0.0 **** 0.06
4073 H 18.234702629427176 106.385019738749 17.09867313438582 H 0.0 **** 0.06
4074 H 18.355748838291646 106.97749026779421 15.423974431186167 H 0.0 **** 0.06
4075 H 17.24764520024945 105.64059890519569 15.81717926597895 H 0.0 **** 0.06
4076 C 1.47072370130374 41.941146805158155 109.6733100222809 C 0.0 **** -0.24
4077 H 1.7816663389882308 42.56152734855269 110.51421384806471 H 0.0 **** 0.06
4078 H 1.7123069234897343 42.44762476837132 108.7388105960676 H 0.0 **** 0.06
4079 H 0.39521133467084724 41.771336354879665 109.72724642288213 H 0.0 **** 0.06
4080 H 1.9926274677507365 40.98482803235561 109.71410763746954 H 0.0 **** 0.06
4081 C 109.98386313633728 107.26710069425587 44.77327089962807 C 0.0 **** -0.24
4082 H 110.39352867864238 107.6847306073837 43.853905402410604 H 0.0 **** 0.06
4083 H 109.75531934070656 106.21222892440227 44.62406370049601 H 0.0 **** 0.06
4084 H 109.0724502677617 107.80217202923393 45.04066167106595 H 0.0 **** 0.06
4085 H 110.71476326470938 107.3709080548278 45.57617044235323 H 0.0 **** 0.06
4086 C 79.84052200199716 50.200617694446464 85.47040619348257 C 0.0 **** -0.24
4087 H 80.14733445817217 50.57121268426803 84.4922799080552 H 0.0 **** 0.06
4088 H 80.72422968900807 49.985323292700116 86.07150654086766 H 0.0 **** 0.06
4089 H 79.25406992663699 49.29024750456523 85.34600105282794 H 0.0 **** 0.06
4090 H 79.23646336616679 50.95768498006177 85.97174032949732 H 0.0 **** 0.06
4091 C 41.40550893059398 45.939468514357344 63.316956550456325 C 0.0 **** -0.24
4092 H 40.89769629281933 46.77779132638392 63.79522406511421 H 0.0 **** 0.06
4093 H 40.748996862683015 45.49843064206155 62.56604102418228 H 0.0 **** 0.06
4094 H 41.65391364646311 45.18984261552072 64.06837299465477 H 0.0 **** 0.06
4095 H 42.31858149677092 46.292677545422094 62.83925545020804 H 0.0 **** 0.06
4096 C 0.5854660789417778 12.086486060761558 88.14182255016664 C 0.0 **** -0.24
4097 H 0.808930667099645 11.86804008747427 87.09829276916838 H 0.0 **** 0.06
4098 H -0.4778684546913894 12.305348923509428 88.24730412338181 H 0.0 **** 0.06
4099 H 1.167933650255378 12.948750102764365 88.4654407973498 H 0.0 **** 0.06
4100 H 0.8420576837473845 11.223651374878912 88.75681737313249 H 0.0 **** 0.06
4101 C 37.573095827758394 2.6861998182805564 112.00891542404503 C 0.0 **** -0.24
4102 H 37.197029538267046 3.2710344790878594 111.16904450448521 H 0.0 **** 0.06
4103 H 36.74143758738231 2.403462185470744 112.65476029006805 H 0.0 **** 0.06
4104 H 38.28674068826578 3.2829360086524844 112.57631778770946 H 0.0 **** 0.06
4105 H 38.06505467230424 1.788074749215724 111.63550893146817 H 0.0 **** 0.06
4106 C 53.139183637465415 38.7734806460068 5.288734637356754 C 0.0 **** -0.24
4107 H 53.20379582533752 39.74600276938643 4.801244625725545 H 0.0 **** 0.06
4108 H 53.097863406148306 37.989995154711416 4.53127853602885 H 0.0 **** 0.06
4109 H 52.23816109943441 38.73413225848522 5.901447200083098 H 0.0 **** 0.06
4110 H 54.0147979086191 38.62373591411069 5.919735961566303 H 0.0 **** 0.06
4111 C 68.40374355052035 85.83541389393974 52.200943515767506 C 0.0 **** -0.24
4112 H 67.74011897336555 85.41057779405816 51.44771694267433 H 0.0 **** 0.06
4113 H 68.32078734486436 85.26103231054094 53.123277286271104 H 0.0 **** 0.06
4114 H 68.12181042476902 86.87120556781275 52.38995640842887 H 0.0 **** 0.06
4115 H 69.43208787054562 85.7989044855264 51.840380597408284 H 0.0 **** 0.06
4116 C 17.561137875279215 58.32495254721064 41.154753251588374 C 0.0 **** -0.24
4117 H 18.07522762220978 58.67995924743937 42.04875527158572 H 0.0 **** 0.06
4118 H 18.02312789903527 57.398148783273086 40.81419551641926 H 0.0 **** 0.06
4119 H 17.63516132987169 59.07787936668501 40.370966158624356 H 0.0 **** 0.06
4120 H 16.511557433241727 58.143551837624955 41.387253272282294 H 0.0 **** 0.06
4121 C 8.869743192628807 21.73753304650998 91.32191920835774 C 0.0 **** -0.24
4122 H 7.8922957257183395 22.217520964330106 91.28947647762834 H 0.0 **** 0.06
4123 H 8.81120449398814 20.835444286240232 91.93300495229244 H 0.0 **** 0.06
4124 H 9.597099598598223 22.4240277136754 91.75640665534192 H 0.0 **** 0.06
4125 H 9.17860723511729 21.472242650893975 90.3114611491556 H 0.0 **** 0.06
4126 C 92.0369049818089 52.36260642325664 17.290266275160388 C 0.0 **** -0.24
4127 H 91.05930084226668 52.763000492729326 17.02344004047459 H 0.0 **** 0.06
4128 H 92.05982871226774 52.14101022546457 18.357332904231946 H 0.0 **** 0.06
4129 H 92.80721976196367 53.09606718807489 17.05434480968666 H 0.0 **** 0.06
4130 H 92.221093965526 51.44862976619163 16.725815541884234 H 0.0 **** 0.06
4131 C 7.870111012742683 57.942288655942804 70.34290082265434 C 0.0 **** -0.24
4132 H 6.8228362294281055 57.743294628937505 70.11490197486438 H 0.0 **** 0.06
4133 H 8.5044095734128 57.38524531772313 69.65294528661819 H 0.0 **** 0.06
4134 H 8.08390476451666 57.63169666254758 71.365553448562 H 0.0 **** 0.06
4135 H 8.06827853025041 59.00934581197944 70.23731546571786 H 0.0 **** 0.06
4136 C 57.639335536929366 93.87055030698417 54.2005132721705 C 0.0 **** -0.24
4137 H 57.28107618673209 93.82204985125344 53.172122534874404 H 0.0 **** 0.06
4138 H 56.925156633832216 94.42745778562431 54.80725878892429 H 0.0 **** 0.06
4139 H 58.60667528693716 94.3719402247396 54.22466882838978 H 0.0 **** 0.06
4140 H 57.74309852126646 92.8602094530604 54.59661701623918 H 0.0 **** 0.06
4141 C 93.5886625782787 33.553101062983785 90.10914925707256 C 0.0 **** -0.24
4142 H 92.58956795222701 33.51975348985502 89.67434305167835 H 0.0 **** 0.06
4143 H 93.64350387630671 34.36770335343408 90.83137643732832 H 0.0 **** 0.06
4144 H 94.32308629810342 33.716320952566434 89.31977629080396 H 0.0 **** 0.06
4145 H 93.7983619998763 32.60774196074311 90.61000542314065 H 0.0 **** 0.06
4146 C 101.28636483805369 15.372953223238596 24.706818587338866 C 0.0 **** -0.24
4147 H 101.3187981523361 14.625312461297938 25.498734536889188 H 0.0 **** 0.06
4148 H 102.08217747058201 16.102997255473895 24.86444057498209 H 0.0 **** 0.06
4149 H 100.32066572834051 15.878259483834086 24.72391748389714 H 0.0 **** 0.06
4150 H 101.42619124395831 14.886082132147294 23.741472176483146 H 0.0 **** 0.06
4151 C 57.93727724318313 71.16706292671182 6.072785849130298 C 0.0 **** -0.24
4152 H 58.46392222116819 71.63238354304855 5.2394099664373925 H 0.0 **** 0.06
4153 H 58.642705089382446 70.96094639255085 6.8786122323901395 H 0.0 **** 0.06
4154 H 57.48290376933818 70.23426548807828 5.738839389399573 H 0.0 **** 0.06
4155 H 57.160072853941074 71.84108198850748 6.4335242824924705 H 0.0 **** 0.06
4156 C 87.00775059504501 112.02166314209767 66.43811899322505 C 0.0 **** -0.24
4157 H 87.88145268343 111.57288190230969 65.9647442412221 H 0.0 **** 0.06
4158 H 86.10650063617166 111.70161381116887 65.91516058638109 H 0.0 **** 0.06
4159 H 87.08906503331191 113.10782803637925 66.39276089642271 H 0.0 **** 0.06
4160 H 86.95725814680775 111.70482276823982 67.48000203103857 H 0.0 **** 0.06
4161 C 20.47363618504617 107.94221651608937 97.15713300875689 C 0.0 **** -0.24
4162 H 20.613686964773446 106.86234495352664 97.13672147346438 H 0.0 **** 0.06
4163 H 21.148602873736507 108.40981817356774 96.43961627184854 H 0.0 **** 0.06
4164 H 20.689739467724284 108.31811299686103 98.15735337460262 H 0.0 **** 0.06
4165 H 19.443169130951 108.17973725488322 96.89433449291946 H 0.0 **** 0.06
4166 C 67.93968755917444 32.33544216175972 92.11990046382397 C 0.0 **** -0.24
4167 H 67.56169784640758 32.0381590955994 91.14170615255384 H 0.0 **** 0.06
4168 H 67.13840332344733 32.267055701281194 92.85570507236318 H 0.0 **** 0.06
4169 H 68.30255682647811 33.362747090503866 92.07169150728797 H 0.0 **** 0.06
4170 H 68.75736472664985 31.67471818431617 92.40925400816107 H 0.0 **** 0.06
4171 C 95.18922649182821 87.61002588094811 6.50360318242258 C 0.0 **** -0.24
4172 H 94.22810627829566 88.09168725934543 6.326175010343519 H 0.0 **** 0.06
4173 H 95.8001134575598 88.24533243820679 7.144765591842429 H 0.0 **** 0.06
4174 H 95.6992111622618 87.45596088527634 5.552856556595202 H 0.0 **** 0.06
4175 H 95.02911154353268 86.64841032533951 6.991074487334885 H 0.0 **** 0.06
4176 C 91.18912233903637 96.49995058289176 103.07092427350352 C 0.0 **** -0.24
4177 H 90.34647769848155 96.70421340636528 103.73226935922955 H 0.0 **** 0.06
4178 H 91.06412925460153 95.51746336784993 102.61593840044995 H 0.0 **** 0.06
4179 H 92.11438034474406 96.51948806151051 103.64707050708662 H 0.0 **** 0.06
4180 H 91.23010920973474 97.26060383102487 102.29110103491604 H 0.0 **** 0.06
4181 C 4.8654135772208225 37.43788046487737 43.474444965619455 C 0.0 **** -0.24
4182 H 4.378505254958069 37.44445606471007 44.45019271176335 H 0.0 **** 0.06
4183 H 5.859507994141264 37.878464273670716 43.56179974747232 H 0.0 **** 0.06
4184 H 4.2712485555889685 38.01724410379015 42.7679159553785 H 0.0 **** 0.06
4185 H 4.952257128979992 36.41084345279202 43.11951998800029 H 0.0 **** 0.06
4186 C 49.81569362523237 88.9869134212708 99.0134454560569 C 0.0 **** -0.24
4187 H 50.208784591003905 87.97167295533146 99.06136007279831 H 0.0 **** 0.06
4188 H 49.01044278878089 89.10012375578401 99.73957016120731 H 0.0 **** 0.06
4189 H 49.43232194200391 89.18128584447459 98.01181325653353 H 0.0 **** 0.06
4190 H 50.61189116083733 89.69577492279686 99.24071051699173 H 0.0 **** 0.06
4191 C 110.22481866361902 15.221305930589693 84.54503062665414 C 0.0 **** -0.24
4192 H 110.7298194031124 14.347040328847953 84.95629998843596 H 0.0 **** 0.06
4193 H 109.40672446420913 14.89903827408412 83.90114634284984 H 0.0 **** 0.06
4194 H 110.93512944814782 15.809850781572806 83.96334757813402 H 0.0 **** 0.06
4195 H 109.83088554482391 15.82962265428938 85.35900175480495 H 0.0 **** 0.06
4196 C 89.61654525023874 12.58049875508783 3.813558498533535 C 0.0 **** -0.24
4197 H 89.72192073345059 13.4870442355828 4.408860781915456 H 0.0 **** 0.06
4198 H 90.5742951185972 12.05874258970428 3.774425200428311 H 0.0 **** 0.06
4199 H 89.30422183067344 12.842565351726577 2.802576922854369 H 0.0 **** 0.06
4200 H 88.86837716122261 11.931431274868942 4.268786442234148 H 0.0 **** 0.06
4201 C 48.305695762433714 30.15310664746555 38.608708110528795 C 0.0 **** -0.24
4202 H 48.78828394534299 30.197762365378807 39.58511175404135 H 0.0 **** 0.06
4203 H 47.432605242735676 29.50238864142426 38.66530865734333 H 0.0 **** 0.06
4204 H 49.007075566995695 29.75842686154772 37.8738783571325 H 0.0 **** 0.06
4205 H 47.993795992260836 31.154760750280474 38.31256429973317 H 0.0 **** 0.06
4206 C 28.323620004927875 86.24030885660312 8.08082387452967 C 0.0 **** -0.24
4207 H 29.22056237840576 86.47940163776359 7.508811970506187 H 0.0 **** 0.06
4208 H 27.482536519549228 86.11217639762718 7.398069668991198 H 0.0 **** 0.06
4209 H 28.108288838560185 87.05147074530817 8.774886060404441 H 0.0 **** 0.06
4210 H 28.483258723173122 85.31741823757075 8.637869568764032 H 0.0 **** 0.06
4211 C 25.593296338132404 81.6615552360339 67.84761680050461 C 0.0 **** -0.24
4212 H 25.525495865913115 80.95019131883446 68.67088531362286 H 0.0 **** 0.06
4213 H 26.58797348281786 82.10544161549497 67.8326591594365 H 0.0 **** 0.06
4214 H 24.84720813171765 82.44530369170627 67.9827255009763 H 0.0 **** 0.06
4215 H 25.40996102811431 81.14426985959079 66.90577362525583 H 0.0 **** 0.06
4216 C 12.357415746700383 3.8963311473368094 96.63886788030851 C 0.0 **** -0.24
4217 H 11.935423323588651 4.694396833097553 96.02824680672116 H 0.0 **** 0.06
4218 H 11.555233522306082 3.380206285848441 97.16598488759392 H 0.0 **** 0.06
4219 H 13.05348974392291 4.322546832291449 97.36240766816019 H 0.0 **** 0.06
4220 H 12.885955630660987 3.1900980647673354 95.99850393457224 H 0.0 **** 0.06
4221 C 4.017130117109296 61.59552931972826 19.733743811290964 C 0.0 **** -0.24
4222 H 3.5804824466320735 60.597155381774 19.77639249419562 H 0.0 **** 0.06
4223 H 4.659752142757549 61.74777682207133 20.601176351348926 H 0.0 **** 0.06
4224 H 3.221646695731298 62.34067844353427 19.734422241696677 H 0.0 **** 0.06
4225 H 4.607197820588183 61.69384153111872 18.821724921671688 H 0.0 **** 0.06
4226 C 41.94697821493406 72.16958773723533 30.52687281539238 C 0.0 **** -0.24
4227 H 40.99963806114806 71.68096593358761 30.755065562978416 H 0.0 **** 0.06
4228 H 42.203681551285854 71.9944968560543 29.481662699389688 H 0.0 **** 0.06
4229 H 42.72898487792085 71.76136540541238 31.16764477080841 H 0.0 **** 0.06
4230 H 41.85432400819343 73.2409272270205 30.704531024038772 H 0.0 **** 0.06
4231 C 111.97603678862038 75.32257938709154 96.41472826528894 C 0.0 **** -0.24
4232 H 111.9710270228116 74.4014093089329 95.83198634369754 H 0.0 **** 0.06
4233 H 112.72019772682422 75.2460576867121 97.20831099921713 H 0.0 **** 0.06
4234 H 110.99067110625748 75.47888740885946 96.85513364506849 H 0.0 **** 0.06
4235 H 112.22164326917085 76.16196925774113 95.76476856434596 H 0.0 **** 0.06
4236 C 0.7889253704109365 112.22128152036507 106.92126960156848 C 0.0 **** -0.24
4237 H 0.42835162934539994 112.90670888805641 107.68864987808247 H 0.0 **** 0.06
4238 H 0.7918751448023045 112.7261829485287 105.95558519896377 H 0.0 **** 0.06
4239 H 0.13509770764471796 111.3505958476944 106.87498375534629 H 0.0 **** 0.06
4240 H 1.8024175614718558 111.901898372837 107.16718955963432 H 0.0 **** 0.06
4241 C 56.6057738810491 92.58917182924716 102.57594243873534 C 0.0 **** -0.24
4242 H 55.87520328973999 92.7348985113506 101.7802566349132 H 0.0 **** 0.06
4243 H 57.56566949506585 93.00369801937674 102.26799114401905 H 0.0 **** 0.06
4244 H 56.71751816602291 91.52307876793654 102.77505142066344 H 0.0 **** 0.06
4245 H 56.26452482777141 93.09311228031805 103.47930480608618 H 0.0 **** 0.06
4246 C 49.24207178387121 42.37071363760998 70.10099581284766 C 0.0 **** -0.24
4247 H 48.30219026753147 42.02622468619242 69.67042106403994 H 0.0 **** 0.06
4248 H 49.05995835624151 42.76865439678784 71.09977329621984 H 0.0 **** 0.06
4249 H 49.665690283280185 43.15168017327423 69.46884057776316 H 0.0 **** 0.06
4250 H 49.94069948848599 41.53609086273792 70.16357165440758 H 0.0 **** 0.06
4251 C 47.93724627195096 54.48985237763908 6.644823150128866 C 0.0 **** -0.24
4252 H 48.91606994674908 54.793867990877196 7.015719731035375 H 0.0 **** 0.06
4253 H 47.74105788553325 54.98192526660264 5.691849917641351 H 0.0 **** 0.06
4254 H 47.17159134451978 54.776155372584576 7.36676065057916 H 0.0 **** 0.06
4255 H 47.9199607306968 53.408807199015996 6.506721441880044 H 0.0 **** 0.06
4256 C 40.13213678560146 96.2914838589561 46.58024573320344 C 0.0 **** -0.24
4257 H 40.905393232946324 96.50779812081527 45.84338201637593 H 0.0 **** 0.06
4258 H 39.386878198156694 97.0866019133166 46.56882418526706 H 0.0 **** 0.06
4259 H 40.58220114136907 96.2286210323573 47.5718681375231 H 0.0 **** 0.06
4260 H 39.65423799380443 95.34188388512558 46.33786332327284 H 0.0 **** 0.06
4261 C 20.636972398286673 96.3732080423876 105.59199815160707 C 0.0 **** -0.24
4262 H 20.982682080111957 96.10930329347917 106.59169244435104 H 0.0 **** 0.06
4263 H 20.068095706365284 97.30153417457723 105.63768645878751 H 0.0 **** 0.06
4264 H 20.002485228404144 95.57632857383817 105.20455825287144 H 0.0 **** 0.06
4265 H 21.49592755931392 96.50522257804573 104.93372254535949 H 0.0 **** 0.06
4266 C 80.64847657967434 46.033056342879185 30.101990870038364 C 0.0 **** -0.24
4267 H 80.1458284045886 46.99370011932775 29.98890280211627 H 0.0 **** 0.06
4268 H 79.90434662748726 45.237015490493434 30.15153105487201 H 0.0 **** 0.06
4269 H 81.23708811973972 46.0368856684189 31.01991810039361 H 0.0 **** 0.06
4270 H 81.30582157450459 45.863605123489 29.249682036647386 H 0.0 **** 0.06
4271 C 49.54179807834939 27.868510367215208 6.555193762534316 C 0.0 **** -0.24
4272 H 49.38897575895271 28.350041271073884 7.521491817034132 H 0.0 **** 0.06
4273 H 50.48590896051752 28.206107144280878 6.126625608394988 H 0.0 **** 0.06
4274 H 48.72314306780234 28.129535309062916 5.885332248927 H 0.0 **** 0.06
4275 H 49.56978272145574 26.786779120157412 6.689800510455541 H 0.0 **** 0.06
4276 C 69.6024854914073 50.2609946668679 73.63225215682438 C 0.0 **** -0.24
4277 H 70.59601823340077 50.219952929299865 73.18591056635927 H 0.0 **** 0.06
4278 H 68.90748353626176 50.721687793368574 72.93023529152862 H 0.0 **** 0.06
4279 H 69.6404914433375 50.85197698781121 74.54759746007456 H 0.0 **** 0.06
4280 H 69.26695703534526 49.25029188878108 73.86625460669681 H 0.0 **** 0.06
4281 C 1.146579446502841 77.6244799962704 115.3125712166005 C 0.0 **** -0.24
4282 H 1.1757421257859875 78.70021530953915 115.48822050906467 H 0.0 **** 0.06
4283 H 0.34564478605169313 77.18185803951343 115.90600369869416 H 0.0 **** 0.06
4284 H 2.100622652071962 77.18327936358753 115.60295747498212 H 0.0 **** 0.06
4285 H 0.9650609968426949 77.4335436610798 114.25521986421987 H 0.0 **** 0.06
4286 C 113.66126817786096 26.542311102116976 6.675744345744695 C 0.0 **** -0.24
4287 H 114.5981567348162 27.10014487379022 6.650210960330034 H 0.0 **** 0.06
4288 H 113.46482506456937 26.209396938806933 7.694427693193084 H 0.0 **** 0.06
4289 H 113.73771911885183 25.67597242778062 6.017919014029895 H 0.0 **** 0.06
4290 H 112.84843444906488 27.184489558643023 6.3390343513061715 H 0.0 **** 0.06
4291 C 103.43505319831428 97.08000445114726 11.125855041031258 C 0.0 **** -0.24
4292 H 103.78272711777754 96.41614005967926 10.335186720771006 H 0.0 **** 0.06
4293 H 104.12736738851605 97.91506772288614 11.229232522506322 H 0.0 **** 0.06
4294 H 103.38419039229791 96.53029538471588 12.065579179774176 H 0.0 **** 0.06
4295 H 102.4441152925443 97.45862801756698 10.872117171114951 H 0.0 **** 0.06
4296 C 114.7532355399036 66.07848542926963 20.57030151983892 C 0.0 **** -0.24
4297 H 114.42989506613074 65.03854318338439 20.611247762671226 H 0.0 **** 0.06
4298 H 115.01987601433048 66.33618205891294 19.545317198828883 H 0.0 **** 0.06
4299 H 115.6202014130665 66.21513054621792 21.216189130104667 H 0.0 **** 0.06
4300 H 113.94234720757876 66.72525311745144 20.908952316872245 H 0.0 **** 0.06
4301 C 111.02268899462422 61.448624930216965 107.7394990494758 C 0.0 **** -0.24
4302 H 112.09994044856532 61.287973845973966 107.77398168560484 H 0.0 **** 0.06
4303 H 110.81104579057327 62.51276451543845 107.84444025651351 H 0.0 **** 0.06
4304 H 110.54697419636153 60.90112463901667 108.55325357314689 H 0.0 **** 0.06
4305 H 110.63395286723133 61.09204073723974 106.78517806492977 H 0.0 **** 0.06
4306 C 113.96912438384604 45.360766534463 49.58102971082508 C 0.0 **** -0.24
4307 H 113.11310269087494 45.093994246708654 48.96158162065089 H 0.0 **** 0.06
4308 H 114.15155326669009 46.43254732940328 49.504582543306526 H 0.0 **** 0.06
4309 H 114.84926376122452 44.816088697492496 49.23756595472079 H 0.0 **** 0.06
4310 H 113.76238906222008 45.100100333748046 50.619027877535245 H 0.0 **** 0.06
4311 C 41.602559760348015 61.94898542706153 61.51802023951238 C 0.0 **** -0.24
4312 H 40.68411572000622 61.55078692375997 61.086399957742785 H 0.0 **** 0.06
4313 H 41.41998610199252 62.95621463709841 61.8942978062814 H 0.0 **** 0.06
4314 H 42.3790310513796 61.98170589897035 60.753713847201354 H 0.0 **** 0.06
4315 H 41.92692755628116 61.30863707142413 62.33768664378226 H 0.0 **** 0.06
4316 C 6.864156024183416 94.40620493829049 47.580720509624825 C 0.0 **** -0.24
4317 H 6.907979734942785 95.47823312196523 47.76798370297081 H 0.0 **** 0.06
4318 H 6.696618019984896 93.87913368411976 48.5204611730619 H 0.0 **** 0.06
4319 H 7.804975555309028 94.0755268922255 47.14013995836012 H 0.0 **** 0.06
4320 H 6.045709948433398 94.19125978911057 46.89235849721234 H 0.0 **** 0.06
4321 C 54.97045124702771 94.01196931231061 69.79547846809103 C 0.0 **** -0.24
4322 H 53.99053828357293 94.48723228160137 69.82502815906403 H 0.0 **** 0.06
4323 H 54.890433645296866 93.04216438477638 69.3029693626491 H 0.0 **** 0.06
4324 H 55.33732665068223 93.87360627460009 70.81292807866441 H 0.0 **** 0.06
4325 H 55.665280194972524 94.64420113884495 69.24217182975963 H 0.0 **** 0.06
4326 C 53.78537746130982 13.72279515214808 90.91619605620104 C 0.0 **** -0.24
4327 H 53.69369535352618 13.838801515318892 89.83620740964909 H 0.0 **** 0.06
4328 H 53.90592370966047 12.666480459904903 91.15941099351272 H 0.0 **** 0.06
4329 H 52.88818730784532 14.107752908162752 91.40029405672692 H 0.0 **** 0.06
4330 H 54.65503757834124 14.278456571350603 91.269223410417 H 0.0 **** 0.06
4331 C 50.80498652806776 0.028831454865525075 1.036704883134675 C 0.0 **** -0.24
4332 H 50.939003602634045 1.1098802550550033 1.074907874583582 H 0.0 **** 0.06
4333 H 51.730301859360566 -0.46381162827569256 1.3362777716658254 H 0.0 **** 0.06
4334 H 50.546450098839614 -0.26976665925431575 0.01973991052495716 H 0.0 **** 0.06
4335 H 50.002288748444585 -0.2612858598803882 1.7147592915439862 H 0.0 **** 0.06
4336 C 110.89657690621618 49.06863278721312 77.29939697398292 C 0.0 **** -0.24
4337 H 110.91790696269231 49.1305351849517 78.38744324029095 H 0.0 **** 0.06
4338 H 109.93543452745695 49.43098835088239 76.93388314231647 H 0.0 **** 0.06
4339 H 111.0372422813532 48.03321730708029 76.99193560515845 H 0.0 **** 0.06
4340 H 111.69740353296044 49.68214207577557 76.88595332346749 H 0.0 **** 0.06
4341 C 15.331426554769266 18.422309556235945 97.13040291051222 C 0.0 **** -0.24
4342 H 14.986706433761114 18.623599272755413 96.11606467813458 H 0.0 **** 0.06
4343 H 16.409244686216866 18.579147325796328 97.18417655692497 H 0.0 **** 0.06
4344 H 15.10028541011961 17.390377780588835 97.39503879126573 H 0.0 **** 0.06
4345 H 14.830637248658078 19.09731465336533 97.82485001189485 H 0.0 **** 0.06
4346 C 74.40073901916452 101.01085958562408 12.767609913148561 C 0.0 **** -0.24
4347 H 74.26736713510631 101.70272304743807 11.935917392421572 H 0.0 **** 0.06
4348 H 73.59466014534094 100.27668244231288 12.761920812793846 H 0.0 **** 0.06
4349 H 74.38317007300876 101.56389481005556 13.706373402405177 H 0.0 **** 0.06
4350 H 75.35819492540234 100.50024963166406 12.664555488210425 H 0.0 **** 0.06
4351 C 95.9037825911276 14.753712567905978 28.25389402929438 C 0.0 **** -0.24
4352 H 94.98173159978373 15.286562252076294 28.4869342732756 H 0.0 **** 0.06
4353 H 96.25674823054192 15.053097166093181 27.267591534272505 H 0.0 **** 0.06
4354 H 95.7146798205415 13.67983207814737 28.262973926619267 H 0.0 **** 0.06
4355 H 96.66027943758368 14.996243871247742 29.000788728111345 H 0.0 **** 0.06
4356 C 0.034052120799572094 26.0411885549182 14.3161726054025 C 0.0 **** -0.24
4357 H 0.06174796236139457 25.54516993037565 15.286430315615661 H 0.0 **** 0.06
4358 H 0.3992495859448866 27.063219021204375 14.421534569780817 H 0.0 **** 0.06
4359 H -0.990408753704827 26.057582281844837 13.94510969852152 H 0.0 **** 0.06
4360 H 0.666910236757488 25.498851936075567 13.613440670746542 H 0.0 **** 0.06
4361 C 77.19546004853487 64.92030905251087 69.57214085117883 C 0.0 **** -0.24
4362 H 76.5370402344648 64.23292581973018 69.04133281155549 H 0.0 **** 0.06
4363 H 76.7234923369914 65.22361546920291 70.50774192237625 H 0.0 **** 0.06
4364 H 77.37747597344452 65.79950706248712 68.95414844625626 H 0.0 **** 0.06
4365 H 78.14166714639327 64.42386426807764 69.78694133266077 H 0.0 **** 0.06
4366 C 92.59670691351116 12.465662767020433 19.824792525810665 C 0.0 **** -0.24
4367 H 92.33437974969986 13.105644508063165 18.9822960038548 H 0.0 **** 0.06
4368 H 91.99883874704584 11.55562609492955 19.790552341501467 H 0.0 **** 0.06
4369 H 92.40124783374698 12.994706740382469 20.757348559846633 H 0.0 **** 0.06
4370 H 93.6551390886918 12.207684623673288 19.768460737441615 H 0.0 **** 0.06
4371 C 53.45111003507952 73.1035214160518 20.22811204701624 C 0.0 **** -0.24
4372 H 52.98648383845506 73.08938080314134 21.21451974672688 H 0.0 **** 0.06
4373 H 52.79596488666897 72.61012166279188 19.50996158300508 H 0.0 **** 0.06
4374 H 54.4058067656735 72.5794788177279 20.26962161300229 H 0.0 **** 0.06
4375 H 53.616585229506086 74.13632637762122 19.920174601264733 H 0.0 **** 0.06
4376 C 16.114757934564892 44.36634807584534 85.06996702327802 C 0.0 **** -0.24
4377 H 16.974509581321172 45.033906674684914 85.1282866869814 H 0.0 **** 0.06
4378 H 16.449527482756764 43.36661754131316 84.79027637948967 H 0.0 **** 0.06
4379 H 15.415759821293847 44.73890717831881 84.32058397271824 H 0.0 **** 0.06
4380 H 15.620528036065338 44.32598578201231 86.04014906412431 H 0.0 **** 0.06
4381 C 91.70269509002048 78.91991725492255 102.33858166702083 C 0.0 **** -0.24
4382 H 90.92679986186812 78.28295481621356 101.91248417998474 H 0.0 **** 0.06
4383 H 92.67793576751592 78.59593352583732 101.9736847208514 H 0.0 **** 0.06
4384 H 91.67782352934898 78.84335741693997 103.4257130132716 H 0.0 **** 0.06
4385 H 91.52756531303805 79.95377133282926 102.04196098809723 H 0.0 **** 0.06
4386 C 91.45319692197745 101.45636209352747 50.3455207679674 C 0.0 **** -0.24
4387 H 92.10147317430938 100.89192450932516 51.01492767204465 H 0.0 **** 0.06
4388 H 90.61668116600299 101.86733318918931 50.91164333619764 H 0.0 **** 0.06
4389 H 91.07402245393382 100.79601785537024 49.56492559505108 H 0.0 **** 0.06
4390 H 92.0184866112694 102.26895508106459 49.89065630280817 H 0.0 **** 0.06
4391 C 61.012871836185056 2.2016666619005036 100.22716429605623 C 0.0 **** -0.24
4392 H 60.16240253512619 2.698207099066508 99.76051015355543 H 0.0 **** 0.06
4393 H 60.74091415544004 1.1772000440691386 100.4823127839702 H 0.0 **** 0.06
4394 H 61.295305052582535 2.739093791355515 101.13262723468688 H 0.0 **** 0.06
4395 H 61.85348267166458 2.1935846643103787 99.5324285695898 H 0.0 **** 0.06
4396 C 66.15706389538157 26.862022851205566 69.44736520461507 C 0.0 **** -0.24
4397 H 65.76160996528162 27.45626338178201 70.2715186921755 H 0.0 **** 0.06
4398 H 67.09091539218029 27.303997413520143 69.09714593843879 H 0.0 **** 0.06
4399 H 65.43436717149466 26.84624687653897 68.63157778440797 H 0.0 **** 0.06
4400 H 66.34223530711368 25.843865399174724 69.78903533906634 H 0.0 **** 0.06
4401 C 54.49127154268348 91.54833532931008 1.7091199223286857 C 0.0 **** -0.24
4402 H 53.90173753203993 92.10348715227468 2.4395565896217395 H 0.0 **** 0.06
4403 H 53.92639374347499 90.67871941643716 1.371954026697523 H 0.0 **** 0.06
4404 H 55.42358787422347 91.22108696357253 2.16902458961556 H 0.0 **** 0.06
4405 H 54.712084507611905 92.19074671374426 0.8573108235349949 H 0.0 **** 0.06
4406 C 7.167599012195195 47.01717496750204 34.30015816058267 C 0.0 **** -0.24
4407 H 6.2294424461075515 47.566529877938805 34.21664744565308 H 0.0 **** 0.06
4408 H 7.012468635857607 46.12490623522197 34.906749153938435 H 0.0 **** 0.06
4409 H 7.918951730765434 47.65094790499 34.772029491875415 H 0.0 **** 0.06
4410 H 7.508293902823548 46.727301442690354 33.30642839017871 H 0.0 **** 0.06
4411 C 2.2909802441175486 66.87135636902269 48.338410942164785 C 0.0 **** -0.24
4412 H 2.0036643848747104 66.74296537546883 49.38154413137272 H 0.0 **** 0.06
4413 H 3.262579958328388 67.36213678686522 48.286747618775166 H 0.0 **** 0.06
4414 H 1.5461352305949276 67.48361692257602 47.828955804771 H 0.0 **** 0.06
4415 H 2.3501641013882733 65.8957405301392 47.85492297311754 H 0.0 **** 0.06
4416 C 7.22127667528315 33.845296694967544 88.3097297953488 C 0.0 **** -0.24
4417 H 7.35859057058731 32.914012540698764 88.86057129326488 H 0.0 **** 0.06
4418 H 8.022503334955275 33.9553787738285 87.57860780868225 H 0.0 **** 0.06
4419 H 7.242931990981333 34.684139444963876 89.00418162579331 H 0.0 **** 0.06
4420 H 6.260302556030652 33.823422690418795 87.79486973965246 H 0.0 **** 0.06
4421 C 92.18606421107347 26.318724198788843 71.74485128994667 C 0.0 **** -0.24
4422 H 92.10657164613656 26.84412514059356 70.792510276577 H 0.0 **** 0.06
4423 H 92.98102977746021 26.76768000578378 72.34115493995766 H 0.0 **** 0.06
4424 H 92.41679106582035 25.269765824004708 71.56312095754505 H 0.0 **** 0.06
4425 H 91.2401355806108 26.39619593771973 72.28178868453536 H 0.0 **** 0.06
4426 C 14.61358920393198 22.258314676727053 41.14248621257665 C 0.0 **** -0.24
4427 H 13.94763172060965 21.682561002877605 40.499662832556886 H 0.0 **** 0.06
4428 H 14.120206682780235 23.185327283013606 41.437665772319775 H 0.0 **** 0.06
4429 H 15.530243407416336 22.491551992799003 40.59954785915829 H 0.0 **** 0.06
4430 H 14.855988385571692 21.67528041841848 42.03046436135639 H 0.0 **** 0.06
4431 C 35.68394984102724 114.90389541444958 65.88419335217999 C 0.0 **** -0.24
4432 H 36.348876068351274 114.27105361861976 66.47196790704328 H 0.0 **** 0.06
4433 H 36.0730691716397 114.99537653824663 64.8705036255637 H 0.0 **** 0.06
4434 H 35.624643330754516 115.8907532272031 66.34160658525421 H 0.0 **** 0.06
4435 H 34.69004483901908 114.45675608573382 65.85396330929072 H 0.0 **** 0.06
4436 C 76.51881474653344 80.63638011416762 89.01504384594483 C 0.0 **** -0.24
4437 H 77.35646662491597 81.33228837620604 89.0577118276737 H 0.0 **** 0.06
4438 H 75.96249126361263 80.67914544173316 89.95188530215552 H 0.0 **** 0.06
4439 H 76.89556143174799 79.62444749913656 88.86130394856619 H 0.0 **** 0.06
4440 H 75.8621793166325 80.90828405634703 88.1889720100258 H 0.0 **** 0.06
4441 C 8.390760281125779 42.593723612701694 15.739187182109077 C 0.0 **** -0.24
4442 H 8.007648602093766 42.61471560509929 14.718604323300895 H 0.0 **** 0.06
4443 H 9.432651084038426 42.27342409128346 15.72840137703804 H 0.0 **** 0.06
4444 H 7.800538951833886 41.89693098375733 16.334211012956473 H 0.0 **** 0.06
4445 H 8.322202234310708 43.59156622900926 16.1730898131388 H 0.0 **** 0.06
4446 C 33.51793502117872 77.08858447682329 21.518842545641675 C 0.0 **** -0.24
4447 H 33.02687460184828 76.5808834712858 20.689515814499092 H 0.0 **** 0.06
4448 H 32.77170591014322 77.38911096187971 22.254369910087632 H 0.0 **** 0.06
4449 H 34.037587812662345 77.97199303008074 21.146849400881848 H 0.0 **** 0.06
4450 H 34.23593181558842 76.41328164229719 21.984577727370894 H 0.0 **** 0.06
4451 C 26.196344070278187 101.62037785761044 109.23479953247326 C 0.0 **** -0.24
4452 H 26.426222832146507 102.53044589948283 108.68002614616293 H 0.0 **** 0.06
4453 H 27.081417339261833 101.29670724587353 109.78292016099027 H 0.0 **** 0.06
4454 H 25.892912692837932 100.83814241400682 108.53821161530004 H 0.0 **** 0.06
4455 H 25.385357381190076 101.81772579979801 109.93513579306733 H 0.0 **** 0.06
4456 C 106.88146914641082 47.36363178887137 59.77139175275289 C 0.0 **** -0.24
4457 H 106.89984095559605 47.5947392542669 60.83624871287495 H 0.0 **** 0.06
4458 H 105.9576055799273 46.836420316830115 59.53069941247773 H 0.0 **** 0.06
4459 H 107.7351592224725 46.73321655878439 59.52213794796039 H 0.0 **** 0.06
4460 H 106.93267851780169 48.289301320686945 59.197869224839664 H 0.0 **** 0.06
4461 C 100.15660464908706 75.87013490043978 74.052805465307 C 0.0 **** -0.24
4462 H 100.2466852409396 74.86719550067346 73.63706693000105 H 0.0 **** 0.06
4463 H 100.3372504865311 76.60670989347392 73.2694192522584 H 0.0 **** 0.06
4464 H 100.88898578658399 76.00080651036114 74.85002087252353 H 0.0 **** 0.06
4465 H 99.1534350461894 76.00760143673622 74.45691718122153 H 0.0 **** 0.06
4466 C 73.2052303758058 103.72856545429175 43.258169482214896 C 0.0 **** -0.24
4467 H 73.7577436948286 104.5740334499492 42.84614089779831 H 0.0 **** 0.06
4468 H 72.87893630783628 103.07889634215044 42.44606125204399 H 0.0 **** 0.06
4469 H 72.33619686201837 104.09296513518522 43.80421716235088 H 0.0 **** 0.06
4470 H 73.85142304076226 103.16892518505227 43.93475014028448 H 0.0 **** 0.06
4471 C 81.14304032079542 73.58358778123124 15.003635749386348 C 0.0 **** -0.24
4472 H 81.33883264816325 72.8119494148603 15.748144411144068 H 0.0 **** 0.06
4473 H 81.26445243886121 73.16415385542098 14.004568247491164 H 0.0 **** 0.06
4474 H 81.84481694264935 74.40635148437303 15.140317922732123 H 0.0 **** 0.06
4475 H 80.12404927722594 73.95277479127606 15.121990259115563 H 0.0 **** 0.06
4476 C 85.02093956874387 113.99201856291077 108.42285851276353 C 0.0 **** -0.24
4477 H 84.50164055664811 114.5091063796646 109.22980726359725 H 0.0 **** 0.06
4478 H 86.05295848203747 113.8018500833696 108.71872081789455 H 0.0 **** 0.06
4479 H 85.00747115745446 114.61161592768367 107.52692816612583 H 0.0 **** 0.06
4480 H 84.52060660835622 113.04518933144077 108.21790990882513 H 0.0 **** 0.06
4481 C 112.76335439232314 113.34784305196763 108.38597631426234 C 0.0 **** -0.24
4482 H 112.49020816277766 114.31634525190556 108.80433280473795 H 0.0 **** 0.06
4483 H 112.38038515247757 113.27098850193602 107.3678606272628 H 0.0 **** 0.06
4484 H 112.33320696328515 112.55395174545221 108.99714844856412 H 0.0 **** 0.06
4485 H 113.84872996924945 113.24964299236503 108.37443754589843 H 0.0 **** 0.06
4486 C 38.73558547109576 1.0738542960331756 74.1042770433051 C 0.0 **** -0.24
4487 H 39.622723739614514 0.44100020872809864 74.06972294762357 H 0.0 **** 0.06
4488 H 38.92011816035682 1.988566557144253 73.53997678486024 H 0.0 **** 0.06
4489 H 38.50902037796362 1.3251962940631756 75.14080058729962 H 0.0 **** 0.06
4490 H 37.891977258875784 0.540278700269397 73.66739287870143 H 0.0 **** 0.06
4491 C 69.00680044743501 90.55593265743119 72.5978016314628 C 0.0 **** -0.24
4492 H 70.09016700217643 90.46162125950806 72.67337830149233 H 0.0 **** 0.06
4493 H 68.5767289741373 90.60145379811325 73.59936442271248 H 0.0 **** 0.06
4494 H 68.60363033354295 89.69415176423593 72.06752905174974 H 0.0 **** 0.06
4495 H 68.75926633543449 91.4667955492705 72.05361861847317 H 0.0 **** 0.06
4496 C 82.31753340727906 31.759197981441844 22.730859596340167 C 0.0 **** -0.24
4497 H 83.19022556208857 32.184576150279725 23.226646228057263 H 0.0 **** 0.06
4498 H 81.46203143702704 32.42037948778278 22.87121266951057 H 0.0 **** 0.06
4499 H 82.09711478283073 30.781910037824957 23.161028742824456 H 0.0 **** 0.06
4500 H 82.52167012641567 31.649954842369368 21.665634407741365 H 0.0 **** 0.06
4501 C 90.66936375790115 59.020350585116034 87.55128179600104 C 0.0 **** -0.24
4502 H 90.86490994293771 58.303079898217106 88.3490869528245 H 0.0 **** 0.06
4503 H 91.54085548551083 59.66067385134261 87.41727880529686 H 0.0 **** 0.06
4504 H 89.80646799416685 59.631189782963304 87.81732493462744 H 0.0 **** 0.06
4505 H 90.46442942046957 58.48554830405109 86.6243595014567 H 0.0 **** 0.06
4506 C 99.84967795966618 110.08185779648784 109.9501444296348 C 0.0 **** -0.24
4507 H 100.85615115104423 110.35187968466516 109.63180750129507 H 0.0 **** 0.06
4508 H 99.8366670320503 109.03830887251297 110.26653339798762 H 0.0 **** 0.06
4509 H 99.15688711005551 110.21954005527431 109.12085744381176 H 0.0 **** 0.06
4510 H 99.54999168122593 110.71758975332563 110.78338363679234 H 0.0 **** 0.06
4511 C 97.15068346278797 101.44988194988133 45.51866909952423 C 0.0 **** -0.24
4512 H 96.70068629804334 101.86458084346384 44.61719426449662 H 0.0 **** 0.06
4513 H 98.1938009660908 101.20120562754067 45.322153093230895 H 0.0 **** 0.06
4514 H 96.61136011768339 100.54862689461424 45.8124909608411 H 0.0 **** 0.06
4515 H 97.09621644342215 102.18386938040999 46.32280612969487 H 0.0 **** 0.06
4516 C 60.4046255877949 53.0597006541567 12.663589372136897 C 0.0 **** -0.24
4517 H 60.94527745779743 52.92922838930781 13.601026889252807 H 0.0 **** 0.06
4518 H 59.38195158509879 52.703626498213985 12.78151115088346 H 0.0 **** 0.06
4519 H 60.899997547871976 52.490056692562646 11.876601445380771 H 0.0 **** 0.06
4520 H 60.39365803122837 54.11560625682431 12.394724011694194 H 0.0 **** 0.06
4521 C 63.37663942337288 35.175906821104526 87.36309332619123 C 0.0 **** -0.24
4522 H 62.85399864141874 35.80652737124927 88.0825228965081 H 0.0 **** 0.06
4523 H 62.76474710978344 34.303643522691125 87.13224897586842 H 0.0 **** 0.06
4524 H 64.32694648949273 34.85258881958298 87.78703018561444 H 0.0 **** 0.06
4525 H 63.560215975840975 35.74316447840584 86.45002103159464 H 0.0 **** 0.06
4526 C 2.173252368322153 15.811838987208972 18.888233735295955 C 0.0 **** -0.24
4527 H 2.454944339107726 14.771354508708043 19.05029312099282 H 0.0 **** 0.06
4528 H 1.2010095880164045 16.000045842807964 19.34339271332587 H 0.0 **** 0.06
4529 H 2.1186723738692876 16.0104527529636 17.818458020965096 H 0.0 **** 0.06
4530 H 2.91946251131435 16.464791610180953 19.341364921201944 H 0.0 **** 0.06
4531 C 66.05804375563298 24.96534175937387 7.5499660223891425 C 0.0 **** -0.24
4532 H 66.02904582421502 24.515350829781966 8.542072271357796 H 0.0 **** 0.06
4533 H 66.61254590961971 25.902900074725352 7.592219192613001 H 0.0 **** 0.06
4534 H 65.04177316345806 25.159184476158003 7.208284030881501 H 0.0 **** 0.06
4535 H 66.54992063522923 24.282354092067294 6.856157957144177 H 0.0 **** 0.06
4536 C 5.90675453764274 39.51559965763781 11.756726381096854 C 0.0 **** -0.24
4537 H 6.353739998944121 38.867926578829014 12.511678166663557 H 0.0 **** 0.06
4538 H 4.977831437877626 39.93646757323344 12.143653660591639 H 0.0 **** 0.06
4539 H 5.697750703432433 38.93574128300989 10.858016645934129 H 0.0 **** 0.06
4540 H 6.599202290870238 40.322771685288615 11.515896498120782 H 0.0 **** 0.06
4541 C 41.81354947127636 3.2587732373618223 57.182447818346134 C 0.0 **** -0.24
4542 H 41.516934134362145 4.295441999795742 57.02236414127373 H 0.0 **** 0.06
4543 H 41.566300730254454 2.963966305455017 58.20214653439592 H 0.0 **** 0.06
4544 H 42.887568651242134 3.1599636490300327 57.02537454907019 H 0.0 **** 0.06
4545 H 41.28301224163522 2.616534754923407 56.47946806416087 H 0.0 **** 0.06
4546 C 30.153578977616405 108.50259108046555 112.25996556501894 C 0.0 **** -0.24
4547 H 29.50216116550149 107.71633092392977 112.64241477091646 H 0.0 **** 0.06
4548 H 29.75212988244124 109.4756912195005 112.54143892539895 H 0.0 **** 0.06
4549 H 30.208610474340276 108.43200191405452 111.17374954357838 H 0.0 **** 0.06
4550 H 31.15136354259363 108.38413357970609 112.68261712882195 H 0.0 **** 0.06
4551 C 3.418811770182657 64.24952455522401 70.39091700009163 C 0.0 **** -0.24
4552 H 2.8235105249475083 64.73365825914175 71.16472867425229 H 0.0 **** 0.06
4553 H 4.35748916158667 63.898734869223745 70.82173946977272 H 0.0 **** 0.06
4554 H 3.629533009132885 64.96379711912539 69.59448378689669 H 0.0 **** 0.06
4555 H 2.8668436606001535 63.40223872075808 69.98331362796787 H 0.0 **** 0.06
4556 C 33.52323095882974 5.679861129810433 88.80742626624313 C 0.0 **** -0.24
4557 H 32.99518938062539 5.087158478787444 89.55495102143959 H 0.0 **** 0.06
4558 H 34.59272094829146 5.481466609145087 88.87722832404633 H 0.0 **** 0.06
4559 H 33.335884534532795 6.73833746295108 88.98576492327055 H 0.0 **** 0.06
4560 H 33.16675487050037 5.410024751754037 87.8132860913749 H 0.0 **** 0.06
4561 C 35.254459910121966 51.838636303674406 102.83442149499916 C 0.0 **** -0.24
4562 H 34.26998540862786 52.16641895492973 102.49958260790896 H 0.0 **** 0.06
4563 H 36.00820375288811 52.16313829500303 102.11668529123105 H 0.0 **** 0.06
4564 H 35.268621801060974 50.75129113708218 102.91035234558223 H 0.0 **** 0.06
4565 H 35.46972372827011 52.27510539146236 103.80991972531626 H 0.0 **** 0.06
4566 C 83.87330380746346 32.16678902937763 79.80984855115753 C 0.0 **** -0.24
4567 H 82.78602362017214 32.22320060895619 79.85335756023022 H 0.0 **** 0.06
4568 H 84.28876047710534 32.4321021423711 80.78283434370309 H 0.0 **** 0.06
4569 H 84.24349889308424 32.85988312117983 79.05480305626315 H 0.0 **** 0.06
4570 H 84.17382332088296 31.15196816053404 79.55034104243651 H 0.0 **** 0.06
4571 C 22.550710929357138 103.00296532233762 43.73775518453968 C 0.0 **** -0.24
4572 H 23.446866141472498 103.53935881155166 44.049056313572976 H 0.0 **** 0.06
4573 H 21.700522630860036 103.68615562855672 43.73987659031485 H 0.0 **** 0.06
4574 H 22.359584578424574 102.18295625460075 44.429432391627785 H 0.0 **** 0.06
4575 H 22.69642885112313 102.60577460636074 42.73272561679201 H 0.0 **** 0.06
4576 C 99.20840727798908 28.802696607567896 59.05292093894184 C 0.0 **** -0.24
4577 H 99.04522631068697 28.071655054588177 59.84437386654656 H 0.0 **** 0.06
4578 H 98.94179513622824 28.36383788311707 58.09132926191188 H 0.0 **** 0.06
4579 H 100.25839434482444 29.094908749367505 59.04024130216129 H 0.0 **** 0.06
4580 H 98.58952193084892 29.680404761489058 59.23627528335942 H 0.0 **** 0.06
4581 C 73.751758018396 66.5351445478214 55.60454970797639 C 0.0 **** -0.24
4582 H 73.66969371910129 66.07648616086351 54.61970584857298 H 0.0 **** 0.06
4583 H 74.676664881081 66.2073973139066 56.08111524095443 H 0.0 **** 0.06
4584 H 72.90153070182225 66.23500624218639 56.21731971532273 H 0.0 **** 0.06
4585 H 73.76068639009775 67.62052542417638 55.50057259839204 H 0.0 **** 0.06
4586 C 77.91845627261455 66.65608602783698 50.63823993415762 C 0.0 **** -0.24
4587 H 77.38947132383254 65.73584991667877 50.39193334941372 H 0.0 **** 0.06
4588 H 78.90905728521136 66.41252109906281 51.023319612691616 H 0.0 **** 0.06
4589 H 77.35863429492079 67.20567658488136 51.39582768498958 H 0.0 **** 0.06
4590 H 78.0172552136915 67.26913107252096 49.7433924632445 H 0.0 **** 0.06
4591 C 91.61566096758412 73.12674569741984 78.28247901046704 C 0.0 **** -0.24
4592 H 90.877751669892 73.82361835735799 78.68025650287626 H 0.0 **** 0.06
4593 H 92.19788681923296 73.62001476285576 77.50488517333025 H 0.0 **** 0.06
4594 H 91.10520788144953 72.26007389007242 77.86120921695239 H 0.0 **** 0.06
4595 H 92.27909255380575 72.80334719124102 79.08486078734725 H 0.0 **** 0.06
4596 C 78.77141545516727 41.02822803406286 42.114748805266345 C 0.0 **** -0.24
4597 H 79.36845813054481 40.69189496497029 42.96225376093008 H 0.0 **** 0.06
4598 H 79.2941437916611 40.796071133233966 41.187000024648114 H 0.0 **** 0.06
4599 H 78.61567390374807 42.104749975021946 42.18458883638709 H 0.0 **** 0.06
4600 H 77.80731045498126 40.520251527458925 42.12614822669468 H 0.0 **** 0.06
4601 C 2.9442688961558474 30.580509448121973 83.75057519235406 C 0.0 **** -0.24
4602 H 3.640519725593066 30.493623176579092 82.91631676490346 H 0.0 **** 0.06
4603 H 3.391328791284991 30.14198195305579 84.64307599114994 H 0.0 **** 0.06
4604 H 2.0214827668727366 30.052592538704175 83.50983039931603 H 0.0 **** 0.06
4605 H 2.7244805584720098 31.63151970492612 83.93280573070604 H 0.0 **** 0.06
4606 C 102.39890443453754 40.16495619372077 8.397075747567087 C 0.0 **** -0.24
4607 H 103.12732103416576 39.88366230717253 9.15814250449614 H 0.0 **** 0.06
4608 H 102.02965938044147 39.26943692761017 7.897996748909691 H 0.0 **** 0.06
4609 H 102.87300627483549 40.8201454158486 7.666470473261853 H 0.0 **** 0.06
4610 H 101.56657382907386 40.68857264861438 8.868365658442386 H 0.0 **** 0.06
4611 C 56.611969728676954 0.7353211829581028 11.30227423597438 C 0.0 **** -0.24
4612 H 57.089618694435 0.864345875548139 10.331108626947639 H 0.0 **** 0.06
4613 H 56.24126731012721 -0.2864280368491734 11.391548389154366 H 0.0 **** 0.06
4614 H 55.77953132919097 1.4336832538257909 11.392170396472295 H 0.0 **** 0.06
4615 H 57.33643661131829 0.9298430228036807 12.092050437968282 H 0.0 **** 0.06
4616 C 94.19412514434151 60.950804871949074 35.16047411553336 C 0.0 **** -0.24
4617 H 93.49741728297414 61.124435241790565 34.34051119409048 H 0.0 **** 0.06
4618 H 94.04280592817639 59.94634074053593 35.55724599488087 H 0.0 **** 0.06
4619 H 94.01788159214729 61.683444579148045 35.94682945150939 H 0.0 **** 0.06
4620 H 95.21651155163465 61.04759590125151 34.79544388000565 H 0.0 **** 0.06
4621 C 22.664971571539027 24.382771496156977 93.13345740291994 C 0.0 **** -0.24
4622 H 22.953116692811534 23.724867113570895 93.95322246314736 H 0.0 **** 0.06
4623 H 23.463600187190224 25.102075310381622 92.94703042824389 H 0.0 **** 0.06
4624 H 21.75046190115158 24.914059145702367 93.3978946812408 H 0.0 **** 0.06
4625 H 22.49350455032969 23.789028309916603 92.23518256474307 H 0.0 **** 0.06
4626 C 108.00266683872805 88.67033674159006 104.86142213995379 C 0.0 **** -0.24
4627 H 108.85096627626176 88.01507701748174 105.0595113089048 H 0.0 **** 0.06
4628 H 107.8406039822372 88.73839830804444 103.78450990957543 H 0.0 **** 0.06
4629 H 108.20810233167695 89.66325853944817 105.26124848665825 H 0.0 **** 0.06
4630 H 107.11047204479627 88.26338362073335 105.33862569391977 H 0.0 **** 0.06
4631 C 0.4755593801773017 30.896828142017455 76.59648824358146 C 0.0 **** -0.24
4632 H 1.2108770841511642 31.669102426290635 76.36716325923788 H 0.0 **** 0.06
4633 H -0.47965059161357715 31.15987730156911 76.14189214418178 H 0.0 **** 0.06
4634 H 0.3556169658473891 30.81897986764693 77.67673912969735 H 0.0 **** 0.06
4635 H 0.8167509214565882 29.941700710361545 76.19887486328633 H 0.0 **** 0.06
4636 C 98.18181208151228 40.89861781640391 99.01247002609243 C 0.0 **** -0.24
4637 H 97.1779058701454 41.26309334958452 98.79452860649445 H 0.0 **** 0.06
4638 H 98.19612827183241 40.44446196883305 100.00283108148189 H 0.0 **** 0.06
4639 H 98.8848162174929 41.73065875072231 98.98358094040296 H 0.0 **** 0.06
4640 H 98.46761713430067 40.156481605357186 98.26740973346483 H 0.0 **** 0.06
4641 C 75.57121514646042 52.193617771252114 9.173897274740352 C 0.0 **** -0.24
4642 H 74.8244733710467 52.345404921907765 8.393454432656824 H 0.0 **** 0.06
4643 H 76.0224319003338 53.15092967777106 9.43478213219699 H 0.0 **** 0.06
4644 H 76.3422636947924 51.51510058024212 8.810357658446971 H 0.0 **** 0.06
4645 H 75.09360616004469 51.76359993322606 10.053939793585752 H 0.0 **** 0.06
4646 C 39.259417441899004 77.98233600860351 6.378458549399966 C 0.0 **** -0.24
4647 H 38.30296125399599 78.28375322288514 6.805841036005717 H 0.0 **** 0.06
4648 H 39.12507772864362 77.73266615848148 5.326158050645148 H 0.0 **** 0.06
4649 H 39.637297538435774 77.11058769443359 6.914185305043816 H 0.0 **** 0.06
4650 H 39.972375008553215 78.80179078243948 6.470599460000074 H 0.0 **** 0.06
4651 C 49.43649169427016 105.49415898991565 43.513101077684894 C 0.0 **** -0.24
4652 H 49.952118155247945 104.77032582066755 44.14478334844523 H 0.0 **** 0.06
4653 H 49.42323967311023 106.46483155722213 44.01017630598736 H 0.0 **** 0.06
4654 H 48.41295660921588 105.16018033245393 43.34011611799792 H 0.0 **** 0.06
4655 H 49.95687904356521 105.58091554792638 42.560370925801124 H 0.0 **** 0.06
4656 C 60.577674879799645 86.62791322193361 48.32261925024777 C 0.0 **** -0.24
4657 H 59.64192185155633 87.1712124485596 48.45279126994035 H 0.0 **** 0.06
4658 H 61.091134455992744 86.55355340665317 49.2818228263381 H 0.0 **** 0.06
4659 H 61.210729809707146 87.1598137585085 47.6111637504776 H 0.0 **** 0.06
4660 H 60.368076032298006 85.62729013484596 47.9439236700257 H 0.0 **** 0.06
4661 C 66.98354061999669 65.26087084757421 85.75172500753598 C 0.0 **** -0.24
4662 H 66.27211480931715 64.55998353771241 86.1874678215296 H 0.0 **** 0.06
4663 H 66.47961812799815 66.20450958271192 85.53886424398462 H 0.0 **** 0.06
4664 H 67.38275026121028 64.84525932783117 84.82712389472783 H 0.0 **** 0.06
4665 H 67.79796922195337 65.4347933501478 86.45441734776904 H 0.0 **** 0.06
4666 C 26.380995342226555 73.1330407873646 51.1462487976051 C 0.0 **** -0.24
4667 H 27.325215018447096 73.16668418240353 50.60299668094791 H 0.0 **** 0.06
4668 H 25.578708234201997 72.84968497703535 50.46393983923252 H 0.0 **** 0.06
4669 H 26.168982257949523 74.1158177016954 51.567556943911995 H 0.0 **** 0.06
4670 H 26.449951185645716 72.39961017912928 51.94972636242352 H 0.0 **** 0.06
4671 C 50.771556891272496 35.852172987385984 40.43722927469628 C 0.0 **** -0.24
4672 H 50.522100895461904 36.5221307843056 41.25908371463649 H 0.0 **** 0.06
4673 H 51.83726672800776 35.924716263662475 40.21993321485215 H 0.0 **** 0.06
4674 H 50.199310328633544 36.13302028203884 39.553160718359294 H 0.0 **** 0.06
4675 H 50.52670692822369 34.82679496468765 40.717152570645055 H 0.0 **** 0.06
4676 C 90.58078024269372 29.545705386232157 28.095693971786574 C 0.0 **** -0.24
4677 H 91.51015365163643 28.97897609356039 28.13736467271825 H 0.0 **** 0.06
4678 H 90.37422809828902 29.829480740317194 27.063850814012113 H 0.0 **** 0.06
4679 H 90.6738923714983 30.442665703932846 28.70763992557636 H 0.0 **** 0.06
4680 H 89.76334380477418 28.93163718657638 28.47477908173841 H 0.0 **** 0.06
4681 C 69.32780473822874 69.38694870098807 14.44911668012071 C 0.0 **** -0.24
4682 H 69.40378482590438 70.35895088381217 13.961661717041295 H 0.0 **** 0.06
4683 H 69.67926755622986 68.61040472508193 13.768506666702308 H 0.0 **** 0.06
4684 H 68.28867446045888 69.19470935759031 14.715508933437661 H 0.0 **** 0.06
4685 H 69.94032764681168 69.38487004974927 15.350745717472591 H 0.0 **** 0.06
4686 C 107.90456618137887 102.14014363370228 14.779615740763774 C 0.0 **** -0.24
4687 H 107.6435796583284 101.97173163286774 15.824213252612225 H 0.0 **** 0.06
4688 H 107.35621843252522 103.00438337811735 14.40325018750103 H 0.0 **** 0.06
4689 H 107.64164706124723 101.25891508120753 14.193090021252118 H 0.0 **** 0.06
4690 H 108.97528045776886 102.32407641526606 14.69721935457548 H 0.0 **** 0.06
4691 C 52.75149427713508 86.56718393853197 50.83366208494013 C 0.0 **** -0.24
4692 H 51.796393030503026 86.1844851691278 50.47344710271693 H 0.0 **** 0.06
4693 H 52.816195434133974 87.63521531447752 50.62507562684074 H 0.0 **** 0.06
4694 H 53.56497568130256 86.04748273223873 50.32856491540349 H 0.0 **** 0.06
4695 H 52.82664120895419 86.40169176483744 51.90891782017823 H 0.0 **** 0.06
4696 C 85.52673688797344 86.86684467262944 61.29622449514653 C 0.0 **** -0.24
4697 H 84.8288901782436 87.40680340500447 61.93665179369947 H 0.0 **** 0.06
4698 H 86.5328419968834 86.9455892871872 61.709143855136176 H 0.0 **** 0.06
4699 H 85.50862793177248 87.29751203242677 60.2957075422392 H 0.0 **** 0.06
4700 H 85.23492222987329 85.81735839389427 61.24626085426917 H 0.0 **** 0.06
4701 C 11.536693374144164 19.68499492809383 42.550279367423286 C 0.0 **** -0.24
4702 H 10.510110816808009 19.61708264125693 42.91041369352547 H 0.0 **** 0.06
4703 H 11.547539919144015 19.578844058697115 41.465246680153996 H 0.0 **** 0.06
4704 H 12.1331562339752 18.890170101872826 42.99914366457864 H 0.0 **** 0.06
4705 H 11.954603743351555 20.653396958361895 42.82536114852462 H 0.0 **** 0.06
4706 C 108.11429302359859 75.59842620549537 54.823137230251305 C 0.0 **** -0.24
4707 H 108.37698323072338 74.83567004478289 54.09028906367222 H 0.0 **** 0.06
4708 H 107.04001377924317 75.56943587359092 55.00745560883921 H 0.0 **** 0.06
4709 H 108.39194590212571 76.58056153730416 54.44008026206747 H 0.0 **** 0.06
4710 H 108.64850859572181 75.40706930906254 55.75373156159661 H 0.0 **** 0.06
4711 C 99.5846362354182 6.627991266055023 41.31267765323713 C 0.0 **** -0.24
4712 H 100.55151706119943 6.137267249525896 41.42171861589213 H 0.0 **** 0.06
4713 H 99.37699964540604 6.792432782642116 40.25564995644123 H 0.0 **** 0.06
4714 H 99.60319532839742 7.585964433407362 41.83289064575524 H 0.0 **** 0.06
4715 H 98.80634491979276 5.996747630312692 41.74280986314801 H 0.0 **** 0.06
4716 C 60.639510243878334 50.559043426563086 15.536927133439036 C 0.0 **** -0.24
4717 H 61.430772930695 50.3906431827445 14.806774928338541 H 0.0 **** 0.06
4718 H 60.82581137555711 49.95002032126725 16.42205670292742 H 0.0 **** 0.06
4719 H 59.67880916381661 50.283287147600205 15.100709836557826 H 0.0 **** 0.06
4720 H 60.62209658141779 51.611630530238266 15.817579312232397 H 0.0 **** 0.06
4721 C 106.37027422136804 107.61031009948812 70.3572317491882 C 0.0 **** -0.24
4722 H 105.82903516074002 108.20688910558044 71.09101596570912 H 0.0 **** 0.06
4723 H 107.38863282611628 107.98903523172476 70.26082803611999 H 0.0 **** 0.06
4724 H 105.8656137430306 107.6738505525073 69.39386219780545 H 0.0 **** 0.06
4725 H 106.39948816884146 106.57051329892477 70.68473561242922 H 0.0 **** 0.06
4726 C 15.473942350629898 17.54740034452942 13.747232212347612 C 0.0 **** -0.24
4727 H 16.348244227144505 17.267248528251713 14.333868114534685 H 0.0 **** 0.06
4728 H 14.808366970063673 16.688802869590774 13.65535527042972 H 0.0 **** 0.06
4729 H 15.789999758980116 17.86919310474829 12.754665479926281 H 0.0 **** 0.06
4730 H 14.948948200354351 18.363337600132212 14.24408238958381 H 0.0 **** 0.06
4731 C 33.100764536043755 24.566806316779832 74.86647583000021 C 0.0 **** -0.24
4732 H 33.11781173370221 25.092465374958834 75.82084287846021 H 0.0 **** 0.06
4733 H 33.9491590940885 23.88457443897653 74.81242127609721 H 0.0 **** 0.06
4734 H 33.1618489586659 25.289653316412597 74.05294619889227 H 0.0 **** 0.06
4735 H 32.17281600475552 24.00048812657758 74.78068046122894 H 0.0 **** 0.06
4736 C 110.11624754471075 74.85759952477792 92.74357820553561 C 0.0 **** -0.24
4737 H 109.88571007934388 75.49030597034114 93.60082064373177 H 0.0 **** 0.06
4738 H 109.27058247373921 74.19913363731617 92.54021171463728 H 0.0 **** 0.06
4739 H 110.99977679670829 74.25787402811581 92.96217130292911 H 0.0 **** 0.06
4740 H 110.30773825876494 75.48340555832675 91.87181523396416 H 0.0 **** 0.06
4741 C 65.79741519488391 107.57738000418341 89.75939243630604 C 0.0 **** -0.24
4742 H 66.32273373623849 107.34532655787676 90.6852726246463 H 0.0 **** 0.06
4743 H 65.18778927163262 108.46993827823837 89.90103116759742 H 0.0 **** 0.06
4744 H 65.15681536471607 106.73973855871562 89.48496908447231 H 0.0 **** 0.06
4745 H 66.52253987473551 107.75616705286008 88.96480386156651 H 0.0 **** 0.06
4746 C 25.99197756983495 104.16784954772929 45.08686013644419 C 0.0 **** -0.24
4747 H 25.856621979255536 103.25610742354274 45.669146791356695 H 0.0 **** 0.06
4748 H 25.871383593909883 103.94415630726914 44.02677712281971 H 0.0 **** 0.06
4749 H 26.99147863845422 104.56631330675764 45.26315773590639 H 0.0 **** 0.06
4750 H 25.249357994425957 104.90581839772243 45.39013013835989 H 0.0 **** 0.06
4751 C 4.143814331348194 39.50717882066118 22.926701872288106 C 0.0 **** -0.24
4752 H 3.140704018857811 39.93196717559928 22.906255570859173 H 0.0 **** 0.06
4753 H 4.168009010557583 38.66633033117466 23.61943916369023 H 0.0 **** 0.06
4754 H 4.854361931524583 40.26770382350506 23.253464007142924 H 0.0 **** 0.06
4755 H 4.413223217178178 39.164421434351965 21.92761189206996 H 0.0 **** 0.06
4756 C 91.40615839298049 90.80601036259691 2.584620914010088 C 0.0 **** -0.24
4757 H 91.46826142097149 91.8948990385428 2.604453293422921 H 0.0 **** 0.06
4758 H 92.30581259235538 90.39881912151839 2.1244708279977544 H 0.0 **** 0.06
4759 H 90.53184558963763 90.50348540116624 2.0070809560679095 H 0.0 **** 0.06
4760 H 91.31601784498045 90.42909015733494 3.603290331454957 H 0.0 **** 0.06
4761 C 71.35050557584896 77.0189829063854 37.785546875449384 C 0.0 **** -0.24
4762 H 71.53446213775996 78.08520053574279 37.65574136481864 H 0.0 **** 0.06
4763 H 70.56382118892935 76.6999462154518 37.101679320751366 H 0.0 **** 0.06
4764 H 71.03886896267144 76.82659744517153 38.81228395087564 H 0.0 **** 0.06
4765 H 72.26379981186184 76.46478952412616 37.57318447970634 H 0.0 **** 0.06
4766 C 112.50760491141016 82.51686206656665 78.91775198231534 C 0.0 **** -0.24
4767 H 113.0076476702449 82.02659128984352 78.08166081745833 H 0.0 **** 0.06
4768 H 112.19186680209485 83.51538740180997 78.61737706516303 H 0.0 **** 0.06
4769 H 113.19640840768336 82.58984662569524 79.7592337340352 H 0.0 **** 0.06
4770 H 111.63559346699415 81.93307934420913 79.21216379529324 H 0.0 **** 0.06
4771 C 35.78969697805752 13.156171446043402 6.669372095264208 C 0.0 **** -0.24
4772 H 36.384170985440846 12.436753709200303 6.106917400289234 H 0.0 **** 0.06
4773 H 35.43751345026979 12.692854015785144 7.591322369968196 H 0.0 **** 0.06
4774 H 34.93562776032334 13.469065637750532 6.069828539225995 H 0.0 **** 0.06
4775 H 36.40308224906741 14.024178308496033 6.909655492520642 H 0.0 **** 0.06
4776 C 78.35937749002593 50.421715950589075 68.16665912920746 C 0.0 **** -0.24
4777 H 79.14884224419052 50.344051828709794 68.91430292744985 H 0.0 **** 0.06
4778 H 77.73865727275478 51.29253393020518 68.38208457275073 H 0.0 **** 0.06
4779 H 77.74398745027344 49.5222562628516 68.19234842134594 H 0.0 **** 0.06
4780 H 78.80484776414315 50.528953416012115 67.17703395612574 H 0.0 **** 0.06
4781 C 32.9392547174418 88.8206646462686 31.499160544704182 C 0.0 **** -0.24
4782 H 32.72616482763462 89.85488044859312 31.772510173808 H 0.0 **** 0.06
4783 H 32.318422831798046 88.15307385611624 32.09638650106382 H 0.0 **** 0.06
4784 H 33.99087941510396 88.60559995939914 31.68673502899796 H 0.0 **** 0.06
4785 H 32.71981295875041 88.67293566345046 30.441556630580834 H 0.0 **** 0.06
4786 C 15.749333608262134 49.64263776199047 35.30894991113988 C 0.0 **** -0.24
4787 H 16.09431923984522 48.655104766482395 35.000639809903205 H 0.0 **** 0.06
4788 H 16.12476739460203 50.39228108238518 34.61129598144383 H 0.0 **** 0.06
4789 H 16.120669279228878 49.86049145125702 36.31065005623808 H 0.0 **** 0.06
4790 H 14.659363147846761 49.6618803584918 35.312782679818284 H 0.0 **** 0.06
4791 C 86.0635128373516 109.74677484318983 49.98424204435241 C 0.0 **** -0.24
4792 H 86.51268317234641 109.66123517808973 50.97425294932589 H 0.0 **** 0.06
4793 H 86.42120806455 108.9331296084527 49.35193736654489 H 0.0 **** 0.06
4794 H 86.34320569116932 110.70200161633522 49.53961715845625 H 0.0 **** 0.06
4795 H 84.97857694518112 109.68956360803509 50.0711760883614 H 0.0 **** 0.06
4796 C 65.04980270638106 83.60069115072388 111.97644811725253 C 0.0 **** -0.24
4797 H 65.91351990321112 83.02262360763893 112.30454422725923 H 0.0 **** 0.06
4798 H 65.3819602796305 84.56898240420611 111.60035102751115 H 0.0 **** 0.06
4799 H 64.37248746767796 83.74999672529282 112.8162935610657 H 0.0 **** 0.06
4800 H 64.53273931916942 83.0615734968152 111.18299356099581 H 0.0 **** 0.06
4801 C 65.49567007530135 100.23279352325176 20.738658810839098 C 0.0 **** -0.24
4802 H 65.97048548288709 99.30437591680203 20.422646811558764 H 0.0 **** 0.06
4803 H 65.83767307751916 100.49318506923316 21.740683154020076 H 0.0 **** 0.06
4804 H 64.41322712795386 100.10329988555401 20.746548109616356 H 0.0 **** 0.06
4805 H 65.7603712783388 101.03058754158508 20.0450259779401 H 0.0 **** 0.06
4806 C 66.25032302398171 109.17288756569407 93.56085606068228 C 0.0 **** -0.24
4807 H 65.98550513287348 109.50740394480947 92.55705133914603 H 0.0 **** 0.06
4808 H 67.08922396218483 108.47857393603263 93.50243159377912 H 0.0 **** 0.06
4809 H 65.39430504204363 108.67227638340559 94.01322560873862 H 0.0 **** 0.06
4810 H 66.53079283756163 110.03332976103876 94.16742130901419 H 0.0 **** 0.06
4811 C 14.280565889118066 75.28467943618398 23.68785599107835 C 0.0 **** -0.24
4812 H 13.492597507080689 74.71333740955203 23.198257573185643 H 0.0 **** 0.06
4813 H 13.861301407551679 76.20097456239438 24.10375153601717 H 0.0 **** 0.06
4814 H 15.052579858036097 75.53592464409053 22.960980626320207 H 0.0 **** 0.06
4815 H 14.717046965899783 74.68898763743348 24.489506849806446 H 0.0 **** 0.06
4816 C 43.61497794567484 74.52797086880798 89.75612270719898 C 0.0 **** -0.24
4817 H 43.63873559921623 75.3483397001774 89.03813443157637 H 0.0 **** 0.06
4818 H 44.6313040239248 74.18031664225148 89.94339640599834 H 0.0 **** 0.06
4819 H 43.01955433202312 73.70885147320723 89.35190527281861 H 0.0 **** 0.06
4820 H 43.171188617292984 74.8746510330104 90.6890135964095 H 0.0 **** 0.06
4821 C 9.110809395013291 41.987700468732356 78.58873976882073 C 0.0 **** -0.24
4822 H 9.610381646964981 42.09034475719153 79.55246862776082 H 0.0 **** 0.06
4823 H 9.791005651420477 42.29114322712829 77.79200695268545 H 0.0 **** 0.06
4824 H 8.224339439413711 42.6217536515409 78.57051511563603 H 0.0 **** 0.06
4825 H 8.81677349655601 40.94802602967553 78.44045768206566 H 0.0 **** 0.06
4826 C 3.9326570876980327 99.50985100634783 76.22169821823405 C 0.0 **** -0.24
4827 H 3.9244344789536427 99.26380302474178 77.28383962618676 H 0.0 **** 0.06
4828 H 3.210131383040732 100.30394210733756 76.02829554740015 H 0.0 **** 0.06
4829 H 3.666678454311949 98.62647503565543 75.64161306384378 H 0.0 **** 0.06
4830 H 4.928592258086994 99.84699849188692 75.93448704110654 H 0.0 **** 0.06
4831 C 68.24635646988594 50.11936308450174 64.55859552153221 C 0.0 **** -0.24
4832 H 68.35533938217225 50.577990175405745 63.575591709859154 H 0.0 **** 0.06
4833 H 68.84309924335275 50.67159962938058 65.28469635859308 H 0.0 **** 0.06
4834 H 68.5888612848862 49.085355052063335 64.5166979993739 H 0.0 **** 0.06
4835 H 67.1978548501578 50.14347489575374 64.85598507036396 H 0.0 **** 0.06
4836 C 94.04920243708096 44.52379318814289 34.57462562284013 C 0.0 **** -0.24
4837 H 93.35924298978802 44.9694273650222 33.858548353474305 H 0.0 **** 0.06
4838 H 94.18373939502538 45.20217213880349 35.4179846465243 H 0.0 **** 0.06
4839 H 95.01072199706226 44.34839910495876 34.09184449214047 H 0.0 **** 0.06
4840 H 93.64304267342567 43.57716177169743 34.93033861645685 H 0.0 **** 0.06
4841 C 46.07191179824301 53.831335533954395 11.460687935263877 C 0.0 **** -0.24
4842 H 45.43769982970457 54.369534619110105 10.75579750771567 H 0.0 **** 0.06
4843 H 46.20085774785302 52.803166291634106 11.1204033663995 H 0.0 **** 0.06
4844 H 45.60393131955337 53.83383579968839 12.444454930464303 H 0.0 **** 0.06
4845 H 47.04513947384763 54.32024615956591 11.518790687625938 H 0.0 **** 0.06
4846 C 15.755200590112544 99.21724754297425 2.1052504247932973 C 0.0 **** -0.24
4847 H 15.804077231974524 99.2206722445801 3.1944009793704424 H 0.0 **** 0.06
4848 H 14.788258105066827 98.82927870385953 1.7857133594400523 H 0.0 **** 0.06
4849 H 16.550012880481848 98.58469091481172 1.7088489367052375 H 0.0 **** 0.06
4850 H 15.880355258760165 100.23444617291321 1.7332116523161858 H 0.0 **** 0.06
4851 C 63.907675290278945 46.03886165207342 108.70362684278882 C 0.0 **** -0.24
4852 H 63.041210144479635 46.63042157510885 108.99829026134708 H 0.0 **** 0.06
4853 H 63.89763369756582 45.89401669240678 107.62258764342985 H 0.0 **** 0.06
4854 H 63.872115878967875 45.06944555548649 109.20134116946656 H 0.0 **** 0.06
4855 H 64.81974144010248 46.561562785291336 108.99228829691151 H 0.0 **** 0.06
4856 C 57.28014544659024 26.41625400635627 88.34128652582865 C 0.0 **** -0.24
4857 H 57.95421711162521 27.173798835198056 87.93920956833847 H 0.0 **** 0.06
4858 H 56.465485733389386 26.245561623492677 87.63798418784785 H 0.0 **** 0.06
4859 H 56.87450733273022 26.76029867275423 89.29269786782055 H 0.0 **** 0.06
4860 H 57.82938204994332 25.48755517063978 88.49492948882727 H 0.0 **** 0.06
4861 C 13.746318903907195 1.1954266380905523 87.7862754306255 C 0.0 **** -0.24
4862 H 14.275918614020298 1.7962440811517695 87.0465213262782 H 0.0 **** 0.06
4863 H 14.304295592655421 1.1993809564648075 88.72317403286561 H 0.0 **** 0.06
4864 H 13.651166265758405 0.17306281139724433 87.4235639655612 H 0.0 **** 0.06
4865 H 12.754645381639989 1.6171855204417511 87.95211771779424 H 0.0 **** 0.06
4866 C 54.766353016822194 87.72158175569629 12.929603632921868 C 0.0 **** -0.24
4867 H 55.691172941435696 87.14434306107503 12.906708157389204 H 0.0 **** 0.06
4868 H 54.63882066483441 88.24007933934051 11.978592912689493 H 0.0 **** 0.06
4869 H 54.81224267314349 88.44984191034236 13.738246781879923 H 0.0 **** 0.06
4870 H 53.92346658235408 87.04936868777749 13.092286278988354 H 0.0 **** 0.06
4871 C 115.25872615968875 94.74229136157408 6.802810115458016 C 0.0 **** -0.24
4872 H 114.40462254891156 94.08538929331482 6.638894782622174 H 0.0 **** 0.06
4873 H 115.26789203391169 95.52253550335618 6.041160150095834 H 0.0 **** 0.06
4874 H 116.18022790410087 94.16350827545006 6.740286310130074 H 0.0 **** 0.06
4875 H 115.18210137710535 95.1984804356211 7.789700542951863 H 0.0 **** 0.06
4876 C 12.296468859580571 50.9643721546754 54.958090775465934 C 0.0 **** -0.24
4877 H 11.317164493256161 51.4406764330039 54.920933002317284 H 0.0 **** 0.06
4878 H 12.839471954708486 51.177200769387014 54.03662550828371 H 0.0 **** 0.06
4879 H 12.172821331924808 49.886584692988606 55.06617897377483 H 0.0 **** 0.06
4880 H 12.85641765843279 51.35302672332193 55.80862561748769 H 0.0 **** 0.06
4881 C 5.743707654064618 48.097009008883184 50.803217042270425 C 0.0 **** -0.24
4882 H 6.232499159362202 48.8569015973722 50.19387998738716 H 0.0 **** 0.06
4883 H 5.604080185609078 48.47755428640731 51.81577869501355 H 0.0 **** 0.06
4884 H 6.365259474125551 47.201330933881906 50.83403514439332 H 0.0 **** 0.06
4885 H 4.774325504611209 47.85261332300869 50.3694722778715 H 0.0 **** 0.06
4886 C 37.68616562886942 103.88416952647908 95.32789560752656 C 0.0 **** -0.24
4887 H 37.46962097726765 104.42800489867275 96.24813478010981 H 0.0 **** 0.06
4888 H 38.756461593947364 103.68761076830901 95.26608339650636 H 0.0 **** 0.06
4889 H 37.37524706193474 104.4824142508534 94.47203674683027 H 0.0 **** 0.06
4890 H 37.142331862030915 102.93921064955833 95.32827405787611 H 0.0 **** 0.06
4891 C 92.98214319833966 58.022649257698845 56.78792877805195 C 0.0 **** -0.24
4892 H 92.75255838147251 58.952927381482084 56.2675615767064 H 0.0 **** 0.06
4893 H 94.0334882119156 58.01881048496847 57.077052501804644 H 0.0 **** 0.06
4894 H 92.78244888252732 57.178559877193834 56.12748053791688 H 0.0 **** 0.06
4895 H 92.35937954692884 57.94209203813807 57.678480563976535 H 0.0 **** 0.06
4896 C 58.536041746575734 94.88339288386652 110.33812923113626 C 0.0 **** -0.24
4897 H 58.44119502072938 93.80517735616229 110.2132457901019 H 0.0 **** 0.06
4898 H 57.56765330619007 95.35577608173304 110.17116655084843 H 0.0 **** 0.06
4899 H 59.25797864178777 95.27041248245129 109.61799064198166 H 0.0 **** 0.06
4900 H 58.87787356465326 95.10403590087265 111.34894532452051 H 0.0 **** 0.06
4901 C 76.73531343136705 89.01505257779986 2.5590904755253803 C 0.0 **** -0.24
4902 H 77.28919225260296 89.95450336091737 2.5754647774551245 H 0.0 **** 0.06
4903 H 76.03841765506382 88.98984977015182 3.397055672481798 H 0.0 **** 0.06
4904 H 77.43232248902319 88.1813242295714 2.6410901293153586 H 0.0 **** 0.06
4905 H 76.18259271412632 88.93636932259079 1.6228590324923857 H 0.0 **** 0.06
4906 C 83.41026252123845 3.3264890457220275 84.20175439323975 C 0.0 **** -0.24
4907 H 83.32679729262262 3.88651707194785 83.27025306184566 H 0.0 **** 0.06
4908 H 84.01121357867436 3.894156500741417 84.91326344326347 H 0.0 **** 0.06
4909 H 83.88824650596237 2.366294170100346 84.00679110113788 H 0.0 **** 0.06
4910 H 82.4165356177067 3.160621643163566 84.61725333915228 H 0.0 **** 0.06
4911 C 20.147399738354068 20.93718082459448 88.7066783133862 C 0.0 **** -0.24
4912 H 19.428579990962646 20.970525044780278 87.88760144161164 H 0.0 **** 0.06
4913 H 20.202645511287017 19.922067366535934 89.09986799552972 H 0.0 **** 0.06
4914 H 19.829535914869155 21.61714900381281 89.49696839340311 H 0.0 **** 0.06
4915 H 21.12892076805292 21.239078250318986 88.34086691329637 H 0.0 **** 0.06
4916 C 53.53859310423717 93.74143502044436 16.6135618346633 C 0.0 **** -0.24
4917 H 53.848983365393956 94.06167968378895 17.608465765368834 H 0.0 **** 0.06
4918 H 52.46614691300627 93.54821377268263 16.612450590329388 H 0.0 **** 0.06
4919 H 54.07337751387863 92.83030032468508 16.342390586105722 H 0.0 **** 0.06
4920 H 53.76822149608576 94.52495718751265 15.891254154793245 H 0.0 **** 0.06
4921 C 7.318156031240704 3.1396678273204124 98.18711696304541 C 0.0 **** -0.24
4922 H 8.239533242028102 2.6272753822705592 97.90991922816139 H 0.0 **** 0.06
4923 H 7.422510496068469 3.55890064705992 99.18833951520268 H 0.0 **** 0.06
4924 H 6.490307413260098 2.4308847602981274 98.17363469421336 H 0.0 **** 0.06
4925 H 7.12107723406487 3.9415882812999516 97.47598050599758 H 0.0 **** 0.06
4926 C 17.107613218740482 53.211983176880636 53.817811414022685 C 0.0 **** -0.24
4927 H 17.775210215076413 52.448439712605506 53.41809876374421 H 0.0 **** 0.06
4928 H 16.151716882153636 53.168068876688935 53.29399618636786 H 0.0 **** 0.06
4929 H 17.554526400903313 54.195373839063855 53.67640458134906 H 0.0 **** 0.06
4930 H 16.94853982115788 53.03435497680026 54.881038758338164 H 0.0 **** 0.06
4931 C 48.18221924846102 54.81890775957417 104.71948966132872 C 0.0 **** -0.24
4932 H 48.440780005428365 55.45848833424509 103.87634999104012 H 0.0 **** 0.06
4933 H 48.384479936821165 53.778525926548504 104.4618990987111 H 0.0 **** 0.06
4934 H 47.12435968175948 54.936439594532466 104.95383116777069 H 0.0 **** 0.06
4935 H 48.77964498078019 55.1016385886975 105.58662653939959 H 0.0 **** 0.06
4936 C 69.58870434004416 54.509386604085115 61.75311830478515 C 0.0 **** -0.24
4937 H 68.92339295877034 55.27136756256865 61.34581571637858 H 0.0 **** 0.06
4938 H 69.63570077273414 54.61012445348923 62.836965026896124 H 0.0 **** 0.06
4939 H 70.58611090755923 54.63672933705081 61.332087981716725 H 0.0 **** 0.06
4940 H 69.2092298285051 53.521049606766624 61.49498153561552 H 0.0 **** 0.06
4941 C 105.76937907742212 37.58641372794955 28.511193603832396 C 0.0 **** -0.24
4942 H 105.57175650821182 37.738226899553936 27.45000528782907 H 0.0 **** 0.06
4943 H 106.13615948626452 38.516197937514086 28.948131945060652 H 0.0 **** 0.06
4944 H 106.52144869360626 36.806241989972364 28.632795250412073 H 0.0 **** 0.06
4945 H 104.84946687270036 37.28638133658516 29.01268900175478 H 0.0 **** 0.06
4946 C 59.8864316196173 111.26354731538291 0.04550633147002259 C 0.0 **** -0.24
4947 H 59.55952322460786 110.74291500879355 -0.8554268193889243 H 0.0 **** 0.06
4948 H 60.97457106209362 111.33068831533167 0.05127015132273982 H 0.0 **** 0.06
4949 H 59.55178009825994 110.71200417583202 0.9242907752090161 H 0.0 **** 0.06
4950 H 59.46030560046444 112.26607463888367 0.060307179907795216 H 0.0 **** 0.06
4951 C 59.50354304329663 26.27451622747322 38.43966154636695 C 0.0 **** -0.24
4952 H 58.59570082985029 26.491755578480195 37.8766560865281 H 0.0 **** 0.06
4953 H 59.3052234635002 25.475280554497957 39.1532441921039 H 0.0 **** 0.06
4954 H 59.820847163210445 27.169185309624943 38.97591700429135 H 0.0 **** 0.06
4955 H 60.29097809216161 25.963812583699053 37.75314364271111 H 0.0 **** 0.06
4956 C 51.49234697410955 65.77551654427762 32.68426974924583 C 0.0 **** -0.24
4957 H 50.86765213904218 66.17138190416028 33.48505719940209 H 0.0 **** 0.06
4958 H 51.334819044572384 64.6998775565097 32.59883362674631 H 0.0 **** 0.06
4959 H 52.539766394012474 65.9723042197794 32.90966859412163 H 0.0 **** 0.06
4960 H 51.22523403937893 66.2581155156762 31.74394188738583 H 0.0 **** 0.06
4961 C 93.06454235444392 36.02652977392438 17.840609893145754 C 0.0 **** -0.24
4962 H 93.19260365487462 35.65853644345191 16.822341854015907 H 0.0 **** 0.06
4963 H 92.02277752714673 36.30706438237212 17.996734670775677 H 0.0 **** 0.06
4964 H 93.70249874556819 36.895983174050116 17.995538638354304 H 0.0 **** 0.06
4965 H 93.3395312224188 35.24347926539281 18.546679672488533 H 0.0 **** 0.06
4966 C 106.73551916643362 50.97573527089298 99.57924092632057 C 0.0 **** -0.24
4967 H 106.98858868216281 51.61314933037488 100.42631098116252 H 0.0 **** 0.06
4968 H 105.78580409373228 51.29950854556114 99.15279429162184 H 0.0 **** 0.06
4969 H 106.65078784504668 49.94228116789418 99.91431067849355 H 0.0 **** 0.06
4970 H 107.51834172778665 51.049707961250476 98.82353694670398 H 0.0 **** 0.06
4971 C 67.39103453271646 102.49551383192161 13.565127566470892 C 0.0 **** -0.24
4972 H 67.14840371550322 102.86866967882679 12.57105842831075 H 0.0 **** 0.06
4973 H 66.7040789570346 102.92740962048386 14.293919514133904 H 0.0 **** 0.06
4974 H 68.41371938650107 102.7763384621826 13.819361403195956 H 0.0 **** 0.06
4975 H 67.29876068519614 101.40926348020368 13.578215512323055 H 0.0 **** 0.06
4976 C 0.08522723050967329 97.0372601753985 57.98449641519278 C 0.0 **** -0.24
4977 H 0.47477624455882506 97.09690384377848 59.001391604154946 H 0.0 **** 0.06
4978 H -0.20255545215186999 96.00944013945013 57.76570976473272 H 0.0 **** 0.06
4979 H 0.8555593682725942 97.35784401309314 57.28202147397815 H 0.0 **** 0.06
4980 H -0.7846508574701261 97.6871313158515 57.89055945590235 H 0.0 **** 0.06
4981 C 112.03871431060185 10.203141725161814 6.660066058130811 C 0.0 **** -0.24
4982 H 111.29364836442511 10.1095204006986 7.449787721809422 H 0.0 **** 0.06
4983 H 112.39924446182232 9.211958935906566 6.382281380672971 H 0.0 **** 0.06
4984 H 112.87265694983432 10.806832838919433 7.017856859090996 H 0.0 **** 0.06
4985 H 111.58863047515712 10.683182301728124 5.790964134149405 H 0.0 **** 0.06
4986 C 48.750207401003266 112.87967285303466 102.82629697548305 C 0.0 **** -0.24
4987 H 48.93406125070849 113.72790861544595 102.16657094705937 H 0.0 **** 0.06
4988 H 49.383792289672115 112.96334537846006 103.71003433835125 H 0.0 **** 0.06
4989 H 48.980074949555295 111.95315737346553 102.29949191697955 H 0.0 **** 0.06
4990 H 47.703604696363264 112.8758166506428 103.12871124607267 H 0.0 **** 0.06
4991 C 19.469822172373767 11.90396890786879 22.097371465757817 C 0.0 **** -0.24
4992 H 18.642102133073564 12.103592604132032 21.417001377099155 H 0.0 **** 0.06
4993 H 20.401678013260494 11.857144676473261 21.53313234676105 H 0.0 **** 0.06
4994 H 19.302684904690267 10.952516319001319 22.60322392923115 H 0.0 **** 0.06
4995 H 19.532066735573665 12.702460490367919 22.837677781795094 H 0.0 **** 0.06
4996 C 67.54629755498604 88.14807197156887 94.20099185697092 C 0.0 **** -0.24
4997 H 68.29601440712992 88.87998275072039 93.90108556339194 H 0.0 **** 0.06
4998 H 66.93024932742583 87.88472586666512 93.34079304005249 H 0.0 **** 0.06
4999 H 66.91605581148855 88.57235273379882 94.98213697416111 H 0.0 **** 0.06
5000 H 68.04287067389981 87.25522653509103 94.57995185027832 H 0.0 **** 0.06
5001 C 66.61821066155858 10.498719289921468 104.09297976131779 C 0.0 **** -0.24
5002 H 67.1837199666495 9.724880281624621 103.57324905614293 H 0.0 **** 0.06
5003 H 67.30799743426695 11.23274498356777 104.51120712009228 H 0.0 **** 0.06
5004 H 66.03672253909619 10.046342388425998 104.89669693327366 H 0.0 **** 0.06
5005 H 65.94575910173384 10.991256690104322 103.39056651614452 H 0.0 **** 0.06
5006 C 68.13049984361334 87.48948763700339 82.39386779856717 C 0.0 **** -0.24
5007 H 68.34128196636738 86.42635996389618 82.28039546775179 H 0.0 **** 0.06
5008 H 67.5070053261943 87.82570349693803 81.564912983911 H 0.0 **** 0.06
5009 H 69.06766039080068 88.04742270136633 82.39432588555688 H 0.0 **** 0.06
5010 H 67.60665777264188 87.65813703278543 83.33511190049087 H 0.0 **** 0.06
5011 C 1.1071892150653184 42.560034098391355 93.19390118224338 C 0.0 **** -0.24
5012 H 0.4306337672011722 42.88224830253117 93.986671260228 H 0.0 **** 0.06
5013 H 2.0959851293790166 42.984660297482094 93.36603705763197 H 0.0 **** 0.06
5014 H 0.7266334729490893 42.90036936123323 92.23155731771094 H 0.0 **** 0.06
5015 H 1.1734432393574679 41.47256966242858 93.19489842218478 H 0.0 **** 0.06
5016 C 54.97265528230537 55.68832656219203 48.463644388005775 C 0.0 **** -0.24
5017 H 55.44480343338705 54.70562696428751 48.47414265756362 H 0.0 **** 0.06
5018 H 53.93414056420181 55.59558030217477 48.7826097597484 H 0.0 **** 0.06
5019 H 55.007752659891935 56.09647238695034 47.45358364218151 H 0.0 **** 0.06
5020 H 55.504183528213986 56.35324810454034 49.143716123746515 H 0.0 **** 0.06
5021 C 67.93224263492209 71.04473172740053 28.41651779993262 C 0.0 **** -0.24
5022 H 67.55836903631251 71.09030894362537 29.440387382045742 H 0.0 **** 0.06
5023 H 67.84431604430557 70.02431872619734 28.043358607982213 H 0.0 **** 0.06
5024 H 68.97790088984357 71.35115351337257 28.397516963941314 H 0.0 **** 0.06
5025 H 67.34534888081191 71.7138137642062 27.786891300588792 H 0.0 **** 0.06
5026 C 89.23103728064945 13.55617302537982 0.16252864816801704 C 0.0 **** -0.24
5027 H 89.99219791525906 13.986513173707323 -0.48908124966363076 H 0.0 **** 0.06
5028 H 88.37173041729807 13.25268439689961 -0.43554152057596873 H 0.0 **** 0.06
5029 H 88.91937685913928 14.299297800403366 0.8965388024114276 H 0.0 **** 0.06
5030 H 89.64274471276241 12.687763417118504 0.6757627436495621 H 0.0 **** 0.06
5031 C 48.90186868471409 32.5921949929927 1.4059710762589077 C 0.0 **** -0.24
5032 H 48.7610208507586 31.581238584225332 1.787181686853927 H 0.0 **** 0.06
5033 H 48.503985051304426 32.65792285729242 0.39362628297656954 H 0.0 **** 0.06
5034 H 49.96616335111264 32.83088097346064 1.394159287042072 H 0.0 **** 0.06
5035 H 48.3784318079895 33.29987390064218 2.0493504275815866 H 0.0 **** 0.06
5036 C 68.2393177625915 79.29182031773618 91.8058962841809 C 0.0 **** -0.24
5037 H 68.42678068632267 78.5609148407864 92.5922952746863 H 0.0 **** 0.06
5038 H 67.60464250701352 80.08935869227827 92.19365069038722 H 0.0 **** 0.06
5039 H 67.73994596166148 78.80405166838051 90.96853308697929 H 0.0 **** 0.06
5040 H 69.18724202798913 79.7125659880726 91.46887806106811 H 0.0 **** 0.06
5041 C 31.71589644102437 32.82502943943297 11.180149078717264 C 0.0 **** -0.24
5042 H 31.920201843554196 31.756328204286433 11.123567565814781 H 0.0 **** 0.06
5043 H 32.62450918616912 33.353446612343646 11.466866121563243 H 0.0 **** 0.06
5044 H 30.93923424039832 33.007673983539746 11.922048186944636 H 0.0 **** 0.06
5045 H 31.378945250583058 33.18201652357385 10.206668364095606 H 0.0 **** 0.06
5046 C 106.92461169412198 65.4810544896345 20.42807923068648 C 0.0 **** -0.24
5047 H 107.03015945129492 64.4037801525811 20.554551371477743 H 0.0 **** 0.06
5048 H 107.9112769267913 65.9319342628964 20.314128370507092 H 0.0 **** 0.06
5049 H 106.43107681179926 65.90309590384153 21.304235603394133 H 0.0 **** 0.06
5050 H 106.32741099277548 65.68604869831009 19.54003913899399 H 0.0 **** 0.06
5051 C 65.82087175516176 0.4483806466060578 75.59035182998662 C 0.0 **** -0.24
5052 H 65.95440021250806 -0.011622150166772371 74.61092334007128 H 0.0 **** 0.06
5053 H 65.25777873665521 1.3753900436050834 75.48342489064072 H 0.0 **** 0.06
5054 H 66.79760092621748 0.6633912048563779 76.02567726382995 H 0.0 **** 0.06
5055 H 65.27674751359336 -0.2355697441832607 76.24124213836757 H 0.0 **** 0.06
5056 C 67.46383544781935 31.659555437886695 50.27842884812196 C 0.0 **** -0.24
5057 H 66.52057103230413 31.494447719795687 50.7986684205095 H 0.0 **** 0.06
5058 H 67.94825374571246 32.55055280377729 50.678634039036496 H 0.0 **** 0.06
5059 H 67.27250554376533 31.797058756309724 49.21348033002434 H 0.0 **** 0.06
5060 H 68.11447436260897 30.796815097273964 50.421766445336374 H 0.0 **** 0.06
5061 C 82.81107482275894 40.677825847352565 24.848985097747374 C 0.0 **** -0.24
5062 H 82.50674548883575 40.14281026508641 25.747808473048963 H 0.0 **** 0.06
5063 H 83.87849933890345 40.897375702575275 24.89989124817606 H 0.0 **** 0.06
5064 H 82.25110017479585 41.61080760845534 24.772945119928806 H 0.0 **** 0.06
5065 H 82.60849698726736 40.06025654037898 23.972907458292497 H 0.0 **** 0.06
5066 C 24.67484566859227 93.61600897612487 36.383470004523815 C 0.0 **** -0.24
5067 H 24.00377700037015 94.07086631677333 35.65520070817621 H 0.0 **** 0.06
5068 H 25.58746110824751 94.20909222749793 36.45700897072429 H 0.0 **** 0.06
5069 H 24.923351350894535 92.60367685604757 36.06605369363918 H 0.0 **** 0.06
5070 H 24.18487246990668 93.58254723045818 37.35679377175944 H 0.0 **** 0.06
5071 C 68.98882890659183 95.82730996938699 31.585480764394163 C 0.0 **** -0.24
5072 H 68.58506046079074 94.85745924652599 31.29561330045027 H 0.0 **** 0.06
5073 H 68.59716075877404 96.1060989838565 32.564552463938156 H 0.0 **** 0.06
5074 H 68.6979774689481 96.57724392282665 30.849824550154096 H 0.0 **** 0.06
5075 H 70.07692568056979 95.76880118082443 31.633196322665242 H 0.0 **** 0.06
5076 C 75.48908220651384 71.24043960006105 73.54207867547518 C 0.0 **** -0.24
5077 H 74.46276147171125 71.37927015258771 73.20120271409269 H 0.0 **** 0.06
5078 H 75.48406028022073 70.9031991817651 74.57889364015807 H 0.0 **** 0.06
5079 H 76.02595164684209 72.18612347679237 73.47055428491802 H 0.0 **** 0.06
5080 H 75.98090767327562 70.49404530499822 72.9191527088559 H 0.0 **** 0.06
5081 C 15.076387585087275 52.76239205841771 31.51183417014201 C 0.0 **** -0.24
5082 H 15.254572567003663 53.607184319781545 32.17760795623076 H 0.0 **** 0.06
5083 H 14.440492474249282 53.08004374626715 30.684946379164927 H 0.0 **** 0.06
5084 H 14.583279711917953 51.9621589671987 32.063943030316466 H 0.0 **** 0.06
5085 H 16.02833665614 52.401714106032074 31.121448503535134 H 0.0 **** 0.06
5086 C 43.33978158442767 75.06960012974497 40.29495936095002 C 0.0 **** -0.24
5087 H 43.362146799376745 74.14174221426214 39.72347354740921 H 0.0 **** 0.06
5088 H 44.188309601879666 75.69209691387516 40.01021642660628 H 0.0 **** 0.06
5089 H 43.397461087600675 74.84116840164108 41.35912690723554 H 0.0 **** 0.06
5090 H 42.41175028636823 75.60262190364324 40.08735571824743 H 0.0 **** 0.06
5091 C 47.214519181607045 111.69034214752816 28.400022407471113 C 0.0 **** -0.24
5092 H 46.515563203757154 112.14264617793155 29.104459225182552 H 0.0 **** 0.06
5093 H 47.58912075838566 112.45542187344908 27.718721941605565 H 0.0 **** 0.06
5094 H 46.70367577395268 110.91449932906066 27.82871814960066 H 0.0 **** 0.06
5095 H 48.04793690249841 111.25064170135468 28.946988509617654 H 0.0 **** 0.06
5096 C 17.920949165212235 85.95793074841245 80.10938991727431 C 0.0 **** -0.24
5097 H 18.907057538646754 86.42119260414377 80.15946350396509 H 0.0 **** 0.06
5098 H 17.16761513054545 86.66972001848114 80.4456879592355 H 0.0 **** 0.06
5099 H 17.90145812610176 85.07657050101693 80.75099322870017 H 0.0 **** 0.06
5100 H 17.710170366090978 85.66294897572514 79.08166301733951 H 0.0 **** 0.06
5101 C 35.21823701230072 88.94260195028582 55.26529244193555 C 0.0 **** -0.24
5102 H 34.74570201856886 89.87233366378635 54.946602561032236 H 0.0 **** 0.06
5103 H 35.61257619425031 89.0628978579388 56.27395443530138 H 0.0 **** 0.06
5104 H 36.030915458058736 88.6964852930111 54.582726092409295 H 0.0 **** 0.06
5105 H 34.48084490917688 88.14025203067848 55.25612630229951 H 0.0 **** 0.06
5106 C 29.43763854053983 25.823269063618675 44.40614644257289 C 0.0 **** -0.24
5107 H 28.380682547507625 25.86059223979276 44.142183243548615 H 0.0 **** 0.06
5108 H 29.978548608544067 25.24427928740303 43.657737676184425 H 0.0 **** 0.06
5109 H 29.551839800621487 25.352845954301273 45.38296871318957 H 0.0 **** 0.06
5110 H 29.83891827609849 26.83649342171229 44.441068809097615 H 0.0 **** 0.06
5111 C 72.7010514630806 89.11970066916194 36.44702561177331 C 0.0 **** -0.24
5112 H 72.81673902681473 89.84764419043802 37.250133438246934 H 0.0 **** 0.06
5113 H 71.78618748255991 89.332935317433 35.89273279559512 H 0.0 **** 0.06
5114 H 72.6430202060526 88.11726769971312 36.87164555250118 H 0.0 **** 0.06
5115 H 73.55630825622876 89.1814831402146 35.77497484605382 H 0.0 **** 0.06
5116 C 38.42270336220585 36.58015231877883 9.576622636142986 C 0.0 **** -0.24
5117 H 39.45203221903006 36.81532966365543 9.850256270807165 H 0.0 **** 0.06
5118 H 37.924135258579184 36.10340244663615 10.420696076067145 H 0.0 **** 0.06
5119 H 38.4201927907273 35.903232883960555 8.722637099577469 H 0.0 **** 0.06
5120 H 37.89804768092188 37.498231670918415 9.315117027535337 H 0.0 **** 0.06
5121 C 82.26306774962956 59.79356671297381 19.45821631774311 C 0.0 **** -0.24
5122 H 82.38065478803247 59.77081465114071 18.374239723382516 H 0.0 **** 0.06
5123 H 83.08446220561666 59.247206999827085 19.923201091599424 H 0.0 **** 0.06
5124 H 81.31599975368624 59.32843615859974 19.730430005409886 H 0.0 **** 0.06
5125 H 82.27270004033682 60.82743514276365 19.802261082030896 H 0.0 **** 0.06
5126 C 91.65692844493748 0.5386520939659913 14.865452302541613 C 0.0 **** -0.24
5127 H 91.92789614511372 1.4222469088704006 15.443373807365617 H 0.0 **** 0.06
5128 H 92.45378341085376 -0.20192371073321702 14.939278037618891 H 0.0 **** 0.06
5129 H 91.5139581103993 0.8167953163548844 13.821618338207116 H 0.0 **** 0.06
5130 H 90.73164621473745 0.11753075239732524 15.259216431417514 H 0.0 **** 0.06
5131 C 46.18411995303467 114.85602232114941 82.8321010770614 C 0.0 **** -0.24
5132 H 45.53289882058786 115.46009607300651 82.20029454247906 H 0.0 **** 0.06
5133 H 47.12721199832632 115.38024750073944 82.98700400325889 H 0.0 **** 0.06
5134 H 46.37468017842073 113.89937692269795 82.34603018086923 H 0.0 **** 0.06
5135 H 45.69986155608126 114.68596940240205 83.79476014422613 H 0.0 **** 0.06
5136 C 90.35957551217922 33.06502858883783 18.448345255946375 C 0.0 **** -0.24
5137 H 90.46476866237097 33.61028402936819 19.38607839372058 H 0.0 **** 0.06
5138 H 90.8502633591886 33.62045992934378 17.64879535578914 H 0.0 **** 0.06
5139 H 89.30138208152496 32.94870032425729 18.213304881268506 H 0.0 **** 0.06
5140 H 90.82164901905755 32.08277892838652 18.545906612258197 H 0.0 **** 0.06
5141 C 89.5065486431971 62.70899675863774 95.83029241456967 C 0.0 **** -0.24
5142 H 88.56554266815898 63.17780361872536 96.11608844596577 H 0.0 **** 0.06
5143 H 89.37914541947703 61.627358297261765 95.79989250594937 H 0.0 **** 0.06
5144 H 90.27602701215955 62.96508733518192 96.55924664119351 H 0.0 **** 0.06
5145 H 89.80651869222186 63.067426105186144 94.84490771649098 H 0.0 **** 0.06
5146 C 72.85696221784434 104.64729907947994 5.15509463631804 C 0.0 **** -0.24
5147 H 71.91044613945525 104.37990133483424 4.684937925297419 H 0.0 **** 0.06
5148 H 73.68185867225475 104.2953331911629 4.535128152834261 H 0.0 **** 0.06
5149 H 72.91754760434281 104.18394887544541 6.139732915406 H 0.0 **** 0.06
5150 H 72.9178923060764 105.73142378700722 5.25916575375382 H 0.0 **** 0.06
5151 C 77.86818541279229 50.91523965554005 58.101079299067166 C 0.0 **** -0.24
5152 H 76.92022980891272 50.38986982790979 58.21949932660536 H 0.0 **** 0.06
5153 H 77.75513234766328 51.94798474956798 58.43271494084881 H 0.0 **** 0.06
5154 H 78.16361081315063 50.900972514529315 57.05232156053441 H 0.0 **** 0.06
5155 H 78.6342989390107 50.422791172815934 58.700914422644885 H 0.0 **** 0.06
5156 C 114.6281755652536 98.72557550100352 14.09871929838269 C 0.0 **** -0.24
5157 H 113.73341870689472 99.33861523672466 14.20405669400806 H 0.0 **** 0.06
5158 H 115.31871815509302 98.94731021389988 14.912589816211153 H 0.0 **** 0.06
5159 H 115.10920517015887 98.94538693034474 13.14434665255807 H 0.0 **** 0.06
5160 H 114.35186407440725 97.67178718177527 14.13162341559007 H 0.0 **** 0.06
5161 C 95.35829100949137 84.11653613179351 42.546597015958596 C 0.0 **** -0.24
5162 H 94.57949423675944 83.76456625418768 43.223074910661666 H 0.0 **** 0.06
5163 H 95.22709081631069 83.65237615423172 41.56890043519754 H 0.0 **** 0.06
5164 H 96.33610018367101 83.84771716828755 42.94830117454058 H 0.0 **** 0.06
5165 H 95.29180693727194 85.19950916440399 42.44793714904099 H 0.0 **** 0.06
5166 C 103.462850565583 42.280285018732144 88.50705337006389 C 0.0 **** -0.24
5167 H 103.60603233208836 41.546195542410004 87.7139580461029 H 0.0 **** 0.06
5168 H 103.35523111080198 41.76647685276481 89.462936649232 H 0.0 **** 0.06
5169 H 102.56485387830296 42.86426243079893 88.30419895682198 H 0.0 **** 0.06
5170 H 104.32626331886098 42.9446160438701 88.54618487446618 H 0.0 **** 0.06
5171 C 21.38212746774863 100.09935739088854 78.52010306981852 C 0.0 **** -0.24
5172 H 21.574520283622917 99.40834314957276 79.34128022439117 H 0.0 **** 0.06
5173 H 21.878655823014554 101.04835932984328 78.72212152963395 H 0.0 **** 0.06
5174 H 20.30916039773666 100.26334657333554 78.42634432183152 H 0.0 **** 0.06
5175 H 21.7683813506643 99.67693790796862 77.59237774193349 H 0.0 **** 0.06
5176 C 74.67998131984058 69.6750259052193 80.61441870658462 C 0.0 **** -0.24
5177 H 75.12341270513079 70.65542077717751 80.44008264844223 H 0.0 **** 0.06
5178 H 74.50412785511304 69.18150151799172 79.65823523534635 H 0.0 **** 0.06
5179 H 73.73429231184531 69.79288705427786 81.14275341244127 H 0.0 **** 0.06
5180 H 75.35920574730778 69.07100157321965 81.21609332243571 H 0.0 **** 0.06
5181 C 11.406315013758118 5.839364995803422 110.02427483999799 C 0.0 **** -0.24
5182 H 12.26243037649779 5.914563639115613 109.35439562720478 H 0.0 **** 0.06
5183 H 10.565579495748082 6.390097930912802 109.60272465013384 H 0.0 **** 0.06
5184 H 11.666629204908602 6.2607477338347906 110.99597528004745 H 0.0 **** 0.06
5185 H 11.130481556460055 4.791489149802231 110.14529429086969 H 0.0 **** 0.06
5186 C 43.905826737761686 115.11572075438426 12.808654234896096 C 0.0 **** -0.24
5187 H 44.8132249569739 114.90806484712147 13.376287993657002 H 0.0 **** 0.06
5188 H 43.839454593246444 116.1849231002733 12.608957964096533 H 0.0 **** 0.06
5189 H 43.03608743199999 114.79836046332883 13.383865966197106 H 0.0 **** 0.06
5190 H 43.935550512981365 114.57030445886716 11.864822588255322 H 0.0 **** 0.06
5191 C 12.252813263186312 34.24769611737531 31.334428884574265 C 0.0 **** -0.24
5192 H 11.235818897509517 34.58188652987343 31.128342006601827 H 0.0 **** 0.06
5193 H 12.867142723849184 34.387529729594746 30.445332494138484 H 0.0 **** 0.06
5194 H 12.240333040692747 33.19209126766589 31.605279735122338 H 0.0 **** 0.06
5195 H 12.665044734886806 34.830488216157846 32.158551554343035 H 0.0 **** 0.06
5196 C 101.5437568345628 102.95302973752064 25.566061649070008 C 0.0 **** -0.24
5197 H 102.01993463197078 102.20160827287391 24.936006845228462 H 0.0 **** 0.06
5198 H 100.9998366753695 102.46030960041936 26.371771437585068 H 0.0 **** 0.06
5199 H 100.85056863477317 103.54352457522278 24.966288719519753 H 0.0 **** 0.06
5200 H 102.30571268064062 103.6085011617393 25.98890690069453 H 0.0 **** 0.06
5201 C 56.22860231369725 113.17588100778903 39.632116727073424 C 0.0 **** -0.24
5202 H 55.288536189219315 112.65221013094776 39.80500407153636 H 0.0 **** 0.06
5203 H 56.15154289557509 114.19444232423461 40.011632480419394 H 0.0 **** 0.06
5204 H 56.438815912414555 113.20043529883475 38.56294982105743 H 0.0 **** 0.06
5205 H 57.03476463272392 112.65441914700114 40.14948842745139 H 0.0 **** 0.06
5206 C 101.26282730461494 109.52233392638368 78.81350231405365 C 0.0 **** -0.24
5207 H 101.59108812912031 108.48448428190449 78.76461004708949 H 0.0 **** 0.06
5208 H 101.33049982514174 109.87525639931636 79.84332161900157 H 0.0 **** 0.06
5209 H 100.22976305103671 109.59358210404474 78.47244875746797 H 0.0 **** 0.06
5210 H 101.89918354242907 110.13615629724609 78.17700225979209 H 0.0 **** 0.06
5211 C 44.54340498756861 35.70534186279514 92.59032526969769 C 0.0 **** -0.24
5212 H 45.49039525712945 36.20860575684287 92.7847202859255 H 0.0 **** 0.06
5213 H 44.281584705395005 35.0829210708591 93.44662668548852 H 0.0 **** 0.06
5214 H 44.640098140631764 35.081394465726845 91.7024437624495 H 0.0 **** 0.06
5215 H 43.76360330675547 36.44974794248142 92.42925855899905 H 0.0 **** 0.06
5216 C 75.3359063654001 1.1429670780746406 8.481167163294174 C 0.0 **** -0.24
5217 H 74.9486397940241 1.1848136702589507 9.498864063903 H 0.0 **** 0.06
5218 H 74.8642889312839 1.9192649298539148 7.879683893615436 H 0.0 **** 0.06
5219 H 75.11729816416205 0.16587341360941465 8.05014977466982 H 0.0 **** 0.06
5220 H 76.41505662601375 1.2986701274438222 8.496815921797861 H 0.0 **** 0.06
5221 C 53.42187294455321 110.62642435271506 49.111897012642544 C 0.0 **** -0.24
5222 H 54.015285920551925 110.22284761442619 48.29183885825108 H 0.0 **** 0.06
5223 H 52.69684962398392 111.3387933417127 48.71856109076947 H 0.0 **** 0.06
5224 H 54.078621591797905 111.13087754993543 49.82193704338388 H 0.0 **** 0.06
5225 H 52.897973246312695 109.81406967505818 49.616071154480096 H 0.0 **** 0.06
5226 C 100.33170155593837 104.08828557454359 2.8258590629726257 C 0.0 **** -0.24
5227 H 99.46551817642916 104.38319685240978 3.418023089338817 H 0.0 **** 0.06
5228 H 100.45804998073476 103.0059496005212 2.8824506880437752 H 0.0 **** 0.06
5229 H 101.22347648638686 104.57894623134291 3.216513868313257 H 0.0 **** 0.06
5230 H 100.18017226004588 104.38268071653954 1.7879386136636697 H 0.0 **** 0.06
5231 C 89.01602664949306 42.78742503233562 35.01619158778766 C 0.0 **** -0.24
5232 H 89.14095345166578 42.40913027172286 36.03104130696653 H 0.0 **** 0.06
5233 H 89.89858070469018 43.36125034160264 34.73149618519403 H 0.0 **** 0.06
5234 H 88.13635302776663 43.43033456783492 34.97405787460241 H 0.0 **** 0.06
5235 H 88.88910708802842 41.95079631231302 34.32913601228756 H 0.0 **** 0.06
5236 C 2.3352495390778927 43.21667759474464 97.99461475152266 C 0.0 **** -0.24
5237 H 2.545216513794742 43.96587368068778 97.22965410718685 H 0.0 **** 0.06
5238 H 1.996100461103822 43.71233993323642 98.90469516082995 H 0.0 **** 0.06
5239 H 3.241418169598205 42.64984683245953 98.20552180903896 H 0.0 **** 0.06
5240 H 1.5585943126224038 42.54073185052334 97.63645336367559 H 0.0 **** 0.06
5241 C 14.67124506598148 61.73235641135216 69.53246959324159 C 0.0 **** -0.24
5242 H 14.241374217945975 60.81396370191294 69.93163172671454 H 0.0 **** 0.06
5243 H 14.158178839286307 62.00143542226493 68.60853552913163 H 0.0 **** 0.06
5244 H 15.731247461553608 61.57783600678454 69.32832508555529 H 0.0 **** 0.06
5245 H 14.555188788604568 62.53431277850194 70.26017926722085 H 0.0 **** 0.06
5246 C 79.60639222762748 101.00498783238021 32.44664616505075 C 0.0 **** -0.24
5247 H 79.49897255943102 100.85263231428942 31.37214980263451 H 0.0 **** 0.06
5248 H 80.46302350244474 101.651128824216 32.63791095571696 H 0.0 **** 0.06
5249 H 79.7592401273456 100.04374634612913 32.935589702437454 H 0.0 **** 0.06
5250 H 78.70301350164951 101.47337775666095 32.83840675404316 H 0.0 **** 0.06
5251 C 111.83782882957658 20.91105675117933 46.53844141126524 C 0.0 **** -0.24
5252 H 112.25216269415444 21.748360447903167 47.10029863607406 H 0.0 **** 0.06
5253 H 111.01903744946347 21.26408595790994 45.91182463352118 H 0.0 **** 0.06
5254 H 111.46672309702927 20.157593299599625 47.23289003630856 H 0.0 **** 0.06
5255 H 112.6150990271293 20.475935928641064 45.91075962278717 H 0.0 **** 0.06
5256 C 82.82552184221707 70.8352934877233 44.68540473039741 C 0.0 **** -0.24
5257 H 82.8672631062012 71.28640697998733 43.69393771297382 H 0.0 **** 0.06
5258 H 82.67152138869359 71.6140896755807 45.432179730930216 H 0.0 **** 0.06
5259 H 83.76297174863957 70.31707530173243 44.88819072722464 H 0.0 **** 0.06
5260 H 82.0002546637991 70.12348898709574 44.72632007391064 H 0.0 **** 0.06
5261 C 113.21941675416662 112.82272004722762 72.54713519997671 C 0.0 **** -0.24
5262 H 113.32438836365037 113.83526340991585 72.93686004730618 H 0.0 **** 0.06
5263 H 113.061930253931 112.12968562285926 73.37406862496242 H 0.0 **** 0.06
5264 H 114.12489477467767 112.54487610710311 72.00782652742926 H 0.0 **** 0.06
5265 H 112.36645362440765 112.7810550490322 71.86978560020884 H 0.0 **** 0.06
5266 C 38.19504251704361 92.55513973214764 73.09920677450266 C 0.0 **** -0.24
5267 H 37.259330422000126 92.2975074373129 73.595357991064 H 0.0 **** 0.06
5268 H 39.01715237162202 92.02382998142832 73.5781356389826 H 0.0 **** 0.06
5269 H 38.36183238441511 93.62957824752857 73.17628190152116 H 0.0 **** 0.06
5270 H 38.13909405226549 92.27023782468592 72.04847453462976 H 0.0 **** 0.06
5271 C 59.535312194465945 50.06852901226702 86.42612722127691 C 0.0 **** -0.24
5272 H 59.81278767059848 49.27499084923805 87.12049105949893 H 0.0 **** 0.06
5273 H 58.85702237250581 49.66938462101744 85.67122902114323 H 0.0 **** 0.06
5274 H 60.43065122968204 50.45774937845761 85.94232041995528 H 0.0 **** 0.06
5275 H 59.039014725517376 50.87058731288826 86.97267902270625 H 0.0 **** 0.06
5276 C 3.2645501282533758 15.463667930248722 0.6869500201752885 C 0.0 **** -0.24
5277 H 3.252556212020977 14.791819167217675 -0.17070951773632714 H 0.0 **** 0.06
5278 H 4.294755955857852 15.630334421115176 1.003796776224874 H 0.0 **** 0.06
5279 H 2.7007811905006065 15.017249090553925 1.5061681636146318 H 0.0 **** 0.06
5280 H 2.8116742964808736 16.414587420391527 0.40958373786111224 H 0.0 **** 0.06
5281 C 99.92581932156918 84.26583933856212 29.996883296500584 C 0.0 **** -0.24
5282 H 99.91112358384241 83.52377322011486 30.79481213725876 H 0.0 **** 0.06
5283 H 100.38085817609218 85.18644326089984 30.364755170226317 H 0.0 **** 0.06
5284 H 98.90587322195044 84.46985063260384 29.670285796722737 H 0.0 **** 0.06
5285 H 100.50653233148805 83.88389853811837 29.15704926665893 H 0.0 **** 0.06
5286 C 99.23596981170232 21.953634345781506 35.1946209998174 C 0.0 **** -0.24
5287 H 100.01194746014235 22.263731904388173 34.49496484757941 H 0.0 **** 0.06
5288 H 98.94263349203976 20.926210392049 34.97979465228116 H 0.0 **** 0.06
5289 H 98.37090227440297 22.60864646662321 35.089099176524996 H 0.0 **** 0.06
5290 H 99.6187122011413 22.018076775819114 36.21253451096658 H 0.0 **** 0.06
5291 C 27.3362616072271 109.05208912702274 50.16574960311763 C 0.0 **** -0.24
5292 H 27.91098401768545 108.14396028429135 50.34230724393723 H 0.0 **** 0.06
5293 H 27.298019576481636 109.25575861687076 49.0953749626307 H 0.0 **** 0.06
5294 H 27.8120648291287 109.88842039205225 50.678258028507514 H 0.0 **** 0.06
5295 H 26.32337486298607 108.92123934290893 50.54782732431323 H 0.0 **** 0.06
5296 C 33.1364518152148 109.66694331034357 76.69979455374164 C 0.0 **** -0.24
5297 H 33.92328121395093 110.31828424801266 76.31931191957551 H 0.0 **** 0.06
5298 H 32.71023239297443 109.09383500390331 75.87613961915702 H 0.0 **** 0.06
5299 H 32.35714694797957 110.27227769800818 77.16261606193484 H 0.0 **** 0.06
5300 H 33.5544036776883 108.98517859331396 77.44001521423615 H 0.0 **** 0.06
5301 C 60.58118589982149 42.85155091643247 92.88110391058927 C 0.0 **** -0.24
5302 H 59.52525989115509 43.03025730323361 93.08633036748179 H 0.0 **** 0.06
5303 H 60.84345678742136 43.29179006918167 91.91856036352874 H 0.0 **** 0.06
5304 H 60.76871059892471 41.77741338211342 92.85275445089468 H 0.0 **** 0.06
5305 H 61.18588457460123 43.30477049238783 93.66652550085985 H 0.0 **** 0.06
5306 C 54.85432804259954 8.41578259237465 56.41358008923274 C 0.0 **** -0.24
5307 H 54.283432384646815 7.998725585954812 57.242790628283075 H 0.0 **** 0.06
5308 H 55.0115729421462 9.481218252402094 56.58047055913903 H 0.0 **** 0.06
5309 H 54.30112997112301 8.271475731032364 55.48426845561352 H 0.0 **** 0.06
5310 H 55.8169528804394 7.911087760483289 56.344848816933165 H 0.0 **** 0.06
5311 C 38.89696865149324 89.16568046879686 60.90506088334385 C 0.0 **** -0.24
5312 H 39.77705307913283 89.77491860001913 60.697561745776994 H 0.0 **** 0.06
5313 H 38.85247560253623 88.3394830371206 60.1948885285795 H 0.0 **** 0.06
5314 H 38.00008164183163 89.77775226767722 60.80859652334155 H 0.0 **** 0.06
5315 H 38.95989166222577 88.77113844851186 61.91935909458846 H 0.0 **** 0.06
5316 C 77.36889635825655 33.705786894756635 109.98557977376242 C 0.0 **** -0.24
5317 H 76.80912972195316 34.57145936678786 110.34067142226684 H 0.0 **** 0.06
5318 H 77.7621360648767 33.15303088702208 110.8395639426355 H 0.0 **** 0.06
5319 H 78.19473593376445 34.03997600184411 109.35726201050267 H 0.0 **** 0.06
5320 H 76.70971327137624 33.058939887572855 109.40680075640074 H 0.0 **** 0.06
5321 C 79.20270133095377 84.15870475020216 76.04827773915807 C 0.0 **** -0.24
5322 H 80.10396867803354 84.47528859048953 76.57472382707368 H 0.0 **** 0.06
5323 H 78.46621626483073 84.96294793966564 76.07300205623653 H 0.0 **** 0.06
5324 H 78.79071304253222 83.27376229010332 76.53290958418336 H 0.0 **** 0.06
5325 H 79.44973191707484 83.92506860093022 75.01343161377389 H 0.0 **** 0.06
5326 C 45.9918477788307 35.154882139747066 97.26279152448706 C 0.0 **** -0.24
5327 H 46.70262802920996 34.45078479967674 97.69636155733849 H 0.0 **** 0.06
5328 H 44.97891811718088 34.86718386989411 97.54333515038476 H 0.0 **** 0.06
5329 H 46.08551032865966 35.1425048123551 96.1768289604428 H 0.0 **** 0.06
5330 H 46.202023602754274 36.15784572659915 97.63381268495306 H 0.0 **** 0.06
5331 C 36.43691925674709 78.45814222215328 109.53145339034211 C 0.0 **** -0.24
5332 H 36.76788488687113 79.49578902758427 109.48540528322873 H 0.0 **** 0.06
5333 H 36.64292403197904 78.05525356136033 110.52419476564843 H 0.0 **** 0.06
5334 H 36.97153230674726 77.87276718097415 108.7832037553401 H 0.0 **** 0.06
5335 H 35.36587035073435 78.40865498881492 109.33517855826669 H 0.0 **** 0.06
5336 C 115.4513967124795 79.79492578680248 70.81897762478917 C 0.0 **** -0.24
5337 H 115.7769752493255 79.68520894890844 69.7839387576048 H 0.0 **** 0.06
5338 H 115.97105855548715 80.63792546533975 71.27552085755053 H 0.0 **** 0.06
5339 H 115.68165236366515 78.88370814923383 71.37065713546633 H 0.0 **** 0.06
5340 H 114.3763316293993 79.97369509995957 70.84433840077514 H 0.0 **** 0.06
5341 C 76.20807898656012 90.3199357912817 21.19288284123195 C 0.0 **** -0.24
5342 H 75.71165609921297 91.02380500658657 21.861572642707415 H 0.0 **** 0.06
5343 H 76.18480409452656 89.32280069875742 21.63363730420224 H 0.0 **** 0.06
5344 H 77.24253428455489 90.62800388033327 21.044162340596586 H 0.0 **** 0.06
5345 H 75.69124678878048 90.30543464967417 20.232937118158816 H 0.0 **** 0.06
5346 C 13.29344504683693 33.51149166968548 21.213688149694434 C 0.0 **** -0.24
5347 H 14.336291184409571 33.616526262945115 21.513396737812457 H 0.0 **** 0.06
5348 H 13.239992744654863 32.97987170092688 20.263693619917603 H 0.0 **** 0.06
5349 H 12.84590076039606 34.49866702532057 21.103727180269686 H 0.0 **** 0.06
5350 H 12.752291511649531 32.950277480417924 21.975966368759458 H 0.0 **** 0.06
5351 C 97.49950591879923 8.365088804386517 22.472791706035025 C 0.0 **** -0.24
5352 H 97.68780877884637 9.43763583845923 22.443785422071134 H 0.0 **** 0.06
5353 H 96.69141862534599 8.157129379102273 23.17605589036438 H 0.0 **** 0.06
5354 H 98.40261374354952 7.845344004041934 22.792225791543256 H 0.0 **** 0.06
5355 H 97.21390885002444 8.019650284207515 21.4784098943556 H 0.0 **** 0.06
5356 C 92.99183522496558 58.13119965476105 14.103579622920876 C 0.0 **** -0.24
5357 H 91.9113145370543 58.2000359587222 13.978195598121161 H 0.0 **** 0.06
5358 H 93.41512640970598 59.13322116847155 14.164808282906733 H 0.0 **** 0.06
5359 H 93.42329137423039 57.60516340513496 13.25204218818105 H 0.0 **** 0.06
5360 H 93.21628609543617 57.58468328230519 15.0204467379113 H 0.0 **** 0.06
5361 C 65.05776274953176 89.2281755867445 43.06264120608532 C 0.0 **** -0.24
5362 H 63.98318434894381 89.3309162842209 43.21933601228996 H 0.0 **** 0.06
5363 H 65.27365319529966 88.23475424242162 42.6688151910461 H 0.0 **** 0.06
5364 H 65.57715063120308 89.36540127319154 44.010431702552424 H 0.0 **** 0.06
5365 H 65.39372982465916 89.98298695389047 42.35095620845642 H 0.0 **** 0.06
5366 C 35.887291136081075 18.520256715015677 0.08125636479100251 C 0.0 **** -0.24
5367 H 36.1178233990305 18.441404548851324 1.1439970689679484 H 0.0 **** 0.06
5368 H 36.011156281393056 17.544873757623094 -0.3896895866674015 H 0.0 **** 0.06
5369 H 36.56279084419094 19.237586982649987 -0.38408001428692273 H 0.0 **** 0.06
5370 H 34.857841274120716 18.857301987527677 -0.042238774395158885 H 0.0 **** 0.06
5371 C 82.62604679697873 22.768207006521095 9.206891416233844 C 0.0 **** -0.24
5372 H 83.45941847349224 23.19188625392539 9.767902231457278 H 0.0 **** 0.06
5373 H 81.70611346221392 22.886052040805424 9.780275065169526 H 0.0 **** 0.06
5374 H 82.80989747676438 21.709472632602683 9.026583464180732 H 0.0 **** 0.06
5375 H 82.52957654848296 23.287487347564195 8.253014582150772 H 0.0 **** 0.06
5376 C 69.24470312311445 41.3672896080779 2.546940630739769 C 0.0 **** -0.24
5377 H 68.31118564814767 41.32840704517119 3.109463428552308 H 0.0 **** 0.06
5378 H 69.56665605341135 40.35419700100164 2.3079841956192073 H 0.0 **** 0.06
5379 H 70.009432185858 41.86110741262539 3.147188945734845 H 0.0 **** 0.06
5380 H 69.08907876654337 41.92679570182085 1.6248953461697901 H 0.0 **** 0.06
5381 C 87.09505964234135 15.721286183375469 29.107863082958033 C 0.0 **** -0.24
5382 H 87.01360529178342 14.664934077573207 29.36662755005483 H 0.0 **** 0.06
5383 H 87.58440389562874 15.821115294178696 28.139362248889142 H 0.0 **** 0.06
5384 H 87.68265938160658 16.236633008843683 29.868012925465337 H 0.0 **** 0.06
5385 H 86.09853274955 16.160825597773453 29.059739946956256 H 0.0 **** 0.06
5386 C 26.70798499230822 26.52932297749647 75.05326032707612 C 0.0 **** -0.24
5387 H 27.642875131449443 26.451685445945756 75.60709272069407 H 0.0 **** 0.06
5388 H 26.16618181274807 27.41868919923197 75.37726290712676 H 0.0 **** 0.06
5389 H 26.0996176345756 25.64526401925511 75.24023194730921 H 0.0 **** 0.06
5390 H 26.923027766369124 26.603618148894583 73.987413072826 H 0.0 **** 0.06
5391 C 52.369871396865506 71.92631433433718 53.79038163150395 C 0.0 **** -0.24
5392 H 52.1581730413765 72.9647957389131 53.53467718573833 H 0.0 **** 0.06
5393 H 52.07581688869368 71.74031089073094 54.82391551338594 H 0.0 **** 0.06
5394 H 53.43703588547231 71.73520375463329 53.67549786061474 H 0.0 **** 0.06
5395 H 51.80975627733423 71.26780397206636 53.1278323055154 H 0.0 **** 0.06
5396 C 57.97679359307182 55.07101711143075 111.59904454175087 C 0.0 **** -0.24
5397 H 57.84215612798454 53.99102052609943 111.66128359176629 H 0.0 **** 0.06
5398 H 57.92556870467911 55.501123410391806 112.59923758851352 H 0.0 **** 0.06
5399 H 57.188774429701 55.4992987297617 110.97855499160457 H 0.0 **** 0.06
5400 H 58.947853782865366 55.2908911642293 111.15692353199593 H 0.0 **** 0.06
5401 C 34.58663738470659 39.030876322986416 50.85559789505836 C 0.0 **** -0.24
5402 H 35.57685536600839 38.97510964298385 51.30730018287364 H 0.0 **** 0.06
5403 H 33.883214701902205 39.452282970032144 51.57441816285656 H 0.0 **** 0.06
5404 H 34.260861406880935 38.03111408515775 50.57088232565245 H 0.0 **** 0.06
5405 H 34.62704896121093 39.66660405821483 49.970963665588954 H 0.0 **** 0.06
5406 C 42.389243414472276 29.12480504064049 107.32781576198384 C 0.0 **** -0.24
5407 H 41.563512539868185 29.169416602192364 108.03769593882654 H 0.0 **** 0.06
5408 H 42.01293384918199 28.81197287138515 106.35347252690804 H 0.0 **** 0.06
5409 H 43.13087476683586 28.407898643758607 107.67923811960912 H 0.0 **** 0.06
5410 H 42.847921348575824 30.10991404362744 107.24080210874845 H 0.0 **** 0.06
5411 C 56.590731671642175 72.8653826148776 96.776133895204 C 0.0 **** -0.24
5412 H 56.29777440418316 72.29746258012375 95.89279451615641 H 0.0 **** 0.06
5413 H 56.5856548178234 73.92958952215477 96.54108194000293 H 0.0 **** 0.06
5414 H 57.593244655210825 72.56579590648056 97.0840091290089 H 0.0 **** 0.06
5415 H 55.887670248711665 72.66731191776677 97.58519643238088 H 0.0 **** 0.06
5416 C 24.933229289078696 90.52403587141345 70.82146623487967 C 0.0 **** -0.24
5417 H 24.408955339908253 89.63024602572852 70.48385689049354 H 0.0 **** 0.06
5418 H 24.27343726826569 91.11296554918968 71.4590341995237 H 0.0 **** 0.06
5419 H 25.230567833775517 91.11880899301335 69.95759049303155 H 0.0 **** 0.06
5420 H 25.819192501649063 90.23352577901764 71.38562720304728 H 0.0 **** 0.06
5421 C 111.68874264830603 70.369199082384 7.119931777525345 C 0.0 **** -0.24
5422 H 112.26168094768575 69.6371314966135 7.688988280555899 H 0.0 **** 0.06
5423 H 110.93882132706973 70.82474714758911 7.7664319809818725 H 0.0 **** 0.06
5424 H 111.19627862147988 69.8744906907512 6.282724904857307 H 0.0 **** 0.06
5425 H 112.36042003859649 71.1402662044394 6.741584618409522 H 0.0 **** 0.06
5426 C 113.29035118911068 2.663853015819795 95.87737354469266 C 0.0 **** -0.24
5427 H 112.66725877053051 3.4875340826805203 96.2260896229327 H 0.0 **** 0.06
5428 H 114.21528907149934 2.6402241959353994 96.45471418934142 H 0.0 **** 0.06
5429 H 113.52368615931759 2.8057514565351465 94.8228470664726 H 0.0 **** 0.06
5430 H 112.75621579819874 1.7232963156085273 96.0080715591456 H 0.0 **** 0.06
5431 C 16.864057618346237 109.77576394452151 13.33238936935902 C 0.0 **** -0.24
5432 H 16.78348155761482 110.85451860787302 13.466692894145922 H 0.0 **** 0.06
5433 H 16.716847640717035 109.27942253209591 14.292018477423824 H 0.0 **** 0.06
5434 H 17.853420806979045 109.53080616573396 12.944795797588313 H 0.0 **** 0.06
5435 H 16.10480737090434 109.43978996953282 12.62722980019089 H 0.0 **** 0.06
5436 C 107.19473756936033 50.73608493507897 20.147308823105163 C 0.0 **** -0.24
5437 H 106.43116743425178 50.10626817601487 19.689718275253455 H 0.0 **** 0.06
5438 H 108.10445616452391 50.154070350290695 20.295749618311845 H 0.0 **** 0.06
5439 H 106.83477483987386 51.0994171014724 21.109462698575214 H 0.0 **** 0.06
5440 H 107.40717694583836 51.58192799779259 19.494539722801676 H 0.0 **** 0.06
5441 C 46.5214516866607 43.03603233914578 102.10989887242704 C 0.0 **** -0.24
5442 H 46.74229999509319 41.96864864571381 102.12184193433481 H 0.0 **** 0.06
5443 H 45.441725478281526 43.18193823848918 102.06157275904405 H 0.0 **** 0.06
5444 H 46.989785285846864 43.49468654471812 101.23908287059095 H 0.0 **** 0.06
5445 H 46.91004741402733 43.497423692965015 103.01748793429482 H 0.0 **** 0.06
5446 C 114.24699641303386 90.4263193173272 20.40625908855074 C 0.0 **** -0.24
5447 H 113.55943135391345 91.03066315601579 19.814151501413598 H 0.0 **** 0.06
5448 H 115.26691684028452 90.77814277736896 20.247781368536284 H 0.0 **** 0.06
5449 H 114.17008033984308 89.38321639321966 20.09971259470063 H 0.0 **** 0.06
5450 H 113.99071667637838 90.51534424363156 21.46140872126576 H 0.0 **** 0.06
5451 C 35.49785457337957 99.22580318974022 15.2953358159441 C 0.0 **** -0.24
5452 H 36.121594678214635 99.09593372824293 16.180414245103236 H 0.0 **** 0.06
5453 H 34.49597699565604 99.5305980820583 15.598079864513352 H 0.0 **** 0.06
5454 H 35.44276942853634 98.28390897066939 14.74925205101789 H 0.0 **** 0.06
5455 H 35.93308004944237 99.99338614862111 14.654866628295736 H 0.0 **** 0.06
5456 C 15.024704370916908 19.215696718530154 49.16322915526666 C 0.0 **** -0.24
5457 H 15.061029005829425 18.41195893019352 48.42895226595817 H 0.0 **** 0.06
5458 H 14.138733866377692 19.827620230260948 48.988805726427614 H 0.0 **** 0.06
5459 H 15.917017992091871 19.83436870080851 49.06911263803471 H 0.0 **** 0.06
5460 H 14.98131919268775 18.790898059759968 50.166541882893966 H 0.0 **** 0.06
5461 C 31.3870252478294 39.107151021836216 58.346436006425236 C 0.0 **** -0.24
5462 H 30.387154852092976 39.449120574471124 58.61621304088567 H 0.0 **** 0.06
5463 H 31.83100077782622 38.58206659721532 59.19301069912494 H 0.0 **** 0.06
5464 H 32.005592059416585 39.963981116270105 58.08427251595664 H 0.0 **** 0.06
5465 H 31.321244532687672 38.43053159867503 57.494223224784776 H 0.0 **** 0.06
5466 C 54.09174351710912 75.21632704029997 104.16578876835518 C 0.0 **** -0.24
5467 H 54.83920395790488 75.54473108393029 103.44442744432205 H 0.0 **** 0.06
5468 H 54.35909286704724 74.2286339024796 104.54273465509074 H 0.0 **** 0.06
5469 H 53.11607560155956 75.16926114184065 103.68169528987563 H 0.0 **** 0.06
5470 H 54.052405877275525 75.92372427089049 104.99523338173309 H 0.0 **** 0.06
5471 C 8.466570324664985 64.28946670845534 64.00560147645666 C 0.0 **** -0.24
5472 H 7.842674806198318 65.17325010333721 64.13325241626029 H 0.0 **** 0.06
5473 H 9.009962547723916 64.3622782863105 63.063022051122516 H 0.0 **** 0.06
5474 H 7.837006680338277 63.39960672685345 63.993584869814015 H 0.0 **** 0.06
5475 H 9.175428053012581 64.22218086118255 64.83074805545323 H 0.0 **** 0.06
5476 C 75.6316917860368 109.9589646864022 19.172259282214224 C 0.0 **** -0.24
5477 H 76.69113326794147 109.84645722133504 19.402092611387356 H 0.0 **** 0.06
5478 H 75.50503203787105 110.0885514174035 18.097104325584095 H 0.0 **** 0.06
5479 H 75.23883173832449 110.8333238279578 19.692434929327753 H 0.0 **** 0.06
5480 H 75.0923074327496 109.06981825620343 19.49808235545959 H 0.0 **** 0.06
5481 C 83.97454038372959 109.86786354171741 81.72405024630064 C 0.0 **** -0.24
5482 H 83.84116396828162 110.92606164387871 81.49921238523848 H 0.0 **** 0.06
5483 H 84.91993934124423 109.72431093577265 82.24683795783557 H 0.0 **** 0.06
5484 H 83.98128092647408 109.29630271476648 80.79547424497639 H 0.0 **** 0.06
5485 H 83.15449006242588 109.524537086928 82.35618794914302 H 0.0 **** 0.06
5486 C 104.78723976888207 54.63541419605823 48.53113501395288 C 0.0 **** -0.24
5487 H 104.45355710093287 54.68623639103931 49.56782858848083 H 0.0 **** 0.06
5488 H 104.32889079227698 53.77486843231966 48.044114745646944 H 0.0 **** 0.06
5489 H 105.87211950161516 54.53511707121023 48.504810416439305 H 0.0 **** 0.06
5490 H 104.49408218662462 55.54718524240734 48.01058650241088 H 0.0 **** 0.06
5491 C 76.86759500018195 38.340589038398775 85.61659725014353 C 0.0 **** -0.24
5492 H 75.84262840261533 38.146138385923166 85.30010554990346 H 0.0 **** 0.06
5493 H 76.87139660186835 39.13802745507631 86.36063095469706 H 0.0 **** 0.06
5494 H 77.46149751195605 38.644571635722045 84.75566354740026 H 0.0 **** 0.06
5495 H 77.29189718450777 37.43564644444655 86.05104988210077 H 0.0 **** 0.06
5496 C 4.390196525860844 109.14504395710539 67.45082956020215 C 0.0 **** -0.24
5497 H 3.7557483525331605 110.02374871680684 67.32896449509622 H 0.0 **** 0.06
5498 H 4.840995173354713 108.88700345139999 66.49251320582925 H 0.0 **** 0.06
5499 H 3.7876998042699768 108.30883637809882 67.80638570405154 H 0.0 **** 0.06
5500 H 5.174469013992123 109.36180605402699 68.17551732943221 H 0.0 **** 0.06
5501 C 106.7995547561236 65.9735298267343 13.307416308263015 C 0.0 **** -0.24
5502 H 107.53044759220654 66.51835134255464 13.905416109827655 H 0.0 **** 0.06
5503 H 106.37245922927033 66.64178561098316 12.559080673717858 H 0.0 **** 0.06
5504 H 106.00686314519669 65.59995769565046 13.956107653887813 H 0.0 **** 0.06
5505 H 107.28897633127823 65.13583548974447 12.811393901262079 H 0.0 **** 0.06
5506 C 58.226622176645634 30.57526631930004 82.26719237277052 C 0.0 **** -0.24
5507 H 57.32360120742938 30.787988188854143 82.84039927740139 H 0.0 **** 0.06
5508 H 58.459294974321566 31.42476159850608 81.62643532503523 H 0.0 **** 0.06
5509 H 58.06524827666141 29.689231257451922 81.6533382556272 H 0.0 **** 0.06
5510 H 59.057021559470584 30.397144979089987 82.95151049425738 H 0.0 **** 0.06
5511 C 75.51633533478304 87.49035903561494 34.40947285121329 C 0.0 **** -0.24
5512 H 75.79751002851937 87.29949304573739 33.3731212700044 H 0.0 **** 0.06
5513 H 75.99527152820929 86.75661758082751 35.057200501602885 H 0.0 **** 0.06
5514 H 74.43343435616212 87.41421978156362 34.51082311058323 H 0.0 **** 0.06
5515 H 75.83837353040141 88.49260152917086 34.69425699214468 H 0.0 **** 0.06
5516 C 94.45579131640801 100.40015059123866 71.64000258289987 C 0.0 **** -0.24
5517 H 94.44689441400683 99.31363376107856 71.72786946699243 H 0.0 **** 0.06
5518 H 95.47688648102144 100.74147299478282 71.46677067163536 H 0.0 **** 0.06
5519 H 94.07622845594767 100.84199628373003 72.56096780335848 H 0.0 **** 0.06
5520 H 93.82537020940813 100.70147512725211 70.80439668725494 H 0.0 **** 0.06
5521 C 107.06515087095585 102.78108724050861 72.30776469442 C 0.0 **** -0.24
5522 H 107.89223382680427 102.7615914560015 71.59704791834386 H 0.0 **** 0.06
5523 H 106.18830567387693 103.2190535216593 71.83044968967494 H 0.0 **** 0.06
5524 H 107.3459078611701 103.38013906175081 73.17409545603857 H 0.0 **** 0.06
5525 H 106.83641509446147 101.76435526170184 72.62610812906115 H 0.0 **** 0.06
5526 C 85.86364229242604 68.05173660893516 37.345306457747974 C 0.0 **** -0.24
5527 H 85.32634947431345 68.21543283435057 36.411584613284695 H 0.0 **** 0.06
5528 H 85.5468024237415 68.79072733486095 38.08121865115738 H 0.0 **** 0.06
5529 H 86.93514701711992 68.14972065006728 37.169393584545524 H 0.0 **** 0.06
5530 H 85.6476304701885 67.05072639780803 37.718842279594746 H 0.0 **** 0.06
5531 C 6.387815663849331 22.168011939780627 4.537641372286089 C 0.0 **** -0.24
5532 H 6.901361185872716 23.076345333528792 4.224548855400258 H 0.0 **** 0.06
5533 H 6.929548445978053 21.297774029449215 4.168018474030561 H 0.0 **** 0.06
5534 H 5.3758684880379395 22.164739383268483 4.132681183690892 H 0.0 **** 0.06
5535 H 6.342732232800575 22.133202990164136 5.627028577912114 H 0.0 **** 0.06
5536 C 20.300684500926394 61.006059332617895 31.4102266170933 C 0.0 **** -0.24
5537 H 19.221005060106876 61.012129129795625 31.56146168575701 H 0.0 **** 0.06
5538 H 20.693934756724047 60.01676222593596 31.646948180229288 H 0.0 **** 0.06
5539 H 20.763273462520118 61.747110037340065 32.06102288238466 H 0.0 **** 0.06
5540 H 20.522517622673064 61.246110851325966 30.36990650032969 H 0.0 **** 0.06
5541 C 99.44447440316222 86.5832986880535 92.86855535369801 C 0.0 **** -0.24
5542 H 99.6052473154989 87.08798642218451 91.91528992248979 H 0.0 **** 0.06
5543 H 98.54774101835824 85.9664550168633 92.80572460596431 H 0.0 **** 0.06
5544 H 99.32001576662319 87.32703682979138 93.65559993751202 H 0.0 **** 0.06
5545 H 100.30414823179973 85.95434518639496 93.09572676184399 H 0.0 **** 0.06
5546 C 63.2203746249009 101.17681205802903 1.1118782738768687 C 0.0 **** -0.24
5547 H 63.32442577625109 101.63952274246938 0.12998378458402726 H 0.0 **** 0.06
5548 H 62.88955386432393 100.14492733545408 0.9929114142704236 H 0.0 **** 0.06
5549 H 62.48578934169299 101.72946163754247 1.6973015724166487 H 0.0 **** 0.06
5550 H 64.18177314285855 101.19408843758475 1.6249854332282752 H 0.0 **** 0.06
5551 C 67.89442883842555 57.517857122579656 44.53694877136266 C 0.0 **** -0.24
5552 H 67.64859463801947 56.59287567521419 44.015691252331436 H 0.0 **** 0.06
5553 H 68.9778028799871 57.620052353414536 44.603690086478935 H 0.0 **** 0.06
5554 H 67.46798861213657 57.492646541465064 45.5401963802515 H 0.0 **** 0.06
5555 H 67.48316574956125 58.36446478955574 43.9880083066823 H 0.0 **** 0.06
5556 C 13.373358927231607 13.995971884555033 102.41786462129083 C 0.0 **** -0.24
5557 H 12.716729588372665 14.34015940466432 101.61852148881606 H 0.0 **** 0.06
5558 H 12.98211748284708 13.066126960340569 102.83330080941487 H 0.0 **** 0.06
5559 H 13.419772309175443 14.752704100550105 103.20119770675497 H 0.0 **** 0.06
5560 H 14.37262147748637 13.82411665452588 102.01919605366632 H 0.0 **** 0.06
5561 C 96.9629622644495 87.95446019425165 73.05049035219315 C 0.0 **** -0.24
5562 H 97.68108337226182 87.17265686068345 72.8027845066128 H 0.0 **** 0.06
5563 H 97.35830549659357 88.92270858858771 72.74127294564533 H 0.0 **** 0.06
5564 H 96.78893910430784 87.95908637397355 74.12667812117473 H 0.0 **** 0.06
5565 H 96.02324796376134 87.76200595223537 72.53133908502349 H 0.0 **** 0.06
5566 C 35.75179554459061 36.76028977689367 45.9060338666543 C 0.0 **** -0.24
5567 H 35.36108201841216 37.00333498518984 44.91756962330436 H 0.0 **** 0.06
5568 H 36.27581837565637 35.80572560298725 45.86398825180032 H 0.0 **** 0.06
5569 H 34.9258646937312 36.69119680686175 46.6143741649189 H 0.0 **** 0.06
5570 H 36.442171560502345 37.54065062453167 46.2262298356228 H 0.0 **** 0.06
5571 C 71.6433087978103 70.06384516731629 90.68454621812072 C 0.0 **** -0.24
5572 H 70.98793646627026 69.98493624823385 91.55113087319347 H 0.0 **** 0.06
5573 H 72.66719359385284 70.2328348075547 91.01744854372504 H 0.0 **** 0.06
5574 H 71.32156473671549 70.89777286290581 90.06006326473954 H 0.0 **** 0.06
5575 H 71.59578610667705 69.13984551914928 90.10834591039651 H 0.0 **** 0.06
5576 C 11.513827795387328 88.38380066352876 93.84078372550043 C 0.0 **** -0.24
5577 H 11.670245963722891 89.26856916231196 93.22495296558132 H 0.0 **** 0.06
5578 H 12.346409537532026 88.27181600546567 94.53476325676047 H 0.0 **** 0.06
5579 H 11.451837533132661 87.50334742607207 93.20167432641887 H 0.0 **** 0.06
5580 H 10.584633521578695 88.49153018775728 94.40127098229034 H 0.0 **** 0.06
5581 C 43.60325613037122 47.13182310635207 12.953655170663865 C 0.0 **** -0.24
5582 H 43.77502267134065 46.81194414432474 13.981094328234946 H 0.0 **** 0.06
5583 H 44.554894489459116 47.17503673286447 12.423249089858047 H 0.0 **** 0.06
5584 H 43.14080147689316 48.119232180120235 12.952873717737361 H 0.0 **** 0.06
5585 H 42.94230588379202 46.42107936809907 12.457403546825105 H 0.0 **** 0.06
5586 C 0.3299892751793436 104.78834671416155 25.067302149328498 C 0.0 **** -0.24
5587 H 0.5373513195922328 104.20352071107789 25.964271026396972 H 0.0 **** 0.06
5588 H 1.1223374231251455 104.62586347237936 24.336921332037008 H 0.0 **** 0.06
5589 H 0.28468794647062623 105.845720735496 25.32692781900363 H 0.0 **** 0.06
5590 H -0.6247487965666778 104.47640739795821 24.64340752198075 H 0.0 **** 0.06
5591 C 114.71197992649371 38.34564602056271 68.76915977534702 C 0.0 **** -0.24
5592 H 115.27927206512004 39.2743281682855 68.83213325948981 H 0.0 **** 0.06
5593 H 113.65298439089366 38.57488966318837 68.65256931926655 H 0.0 **** 0.06
5594 H 114.8617159654911 37.76692326243136 69.68003439964667 H 0.0 **** 0.06
5595 H 115.05623386915136 37.768719706649215 67.91113484875765 H 0.0 **** 0.06
5596 C 24.98770390516529 89.43643840993451 87.81586161347532 C 0.0 **** -0.24
5597 H 24.107514491601307 89.06379541230359 87.29200539074576 H 0.0 **** 0.06
5598 H 24.75609540496356 89.55760827759099 88.874124779266 H 0.0 **** 0.06
5599 H 25.280951029975682 90.39747964386589 87.3943092691545 H 0.0 **** 0.06
5600 H 25.805916279698067 88.72458981632934 87.70136832698535 H 0.0 **** 0.06
5601 C 80.77089041990581 113.66892505892363 75.77615824000617 C 0.0 **** -0.24
5602 H 81.2729370681248 112.74317504782337 75.49676500730362 H 0.0 **** 0.06
5603 H 80.24730998966906 114.07438692443323 74.90981083903347 H 0.0 **** 0.06
5604 H 81.50886952269951 114.39126230647717 76.12500247070125 H 0.0 **** 0.06
5605 H 80.0547186787644 113.46826342454658 76.57306884180508 H 0.0 **** 0.06
5606 C 58.82788720052088 109.67207190042114 62.298996405469154 C 0.0 **** -0.24
5607 H 58.15850090096461 108.91704863003767 61.88708940092809 H 0.0 **** 0.06
5608 H 59.634909647390884 109.8663417717746 61.59112165965796 H 0.0 **** 0.06
5609 H 59.24791275282854 109.31259826427927 63.2387356413322 H 0.0 **** 0.06
5610 H 58.27184225758734 110.59190316738419 62.47855971653189 H 0.0 **** 0.06
5611 C 17.823690442121688 65.133758882101 62.21414522274054 C 0.0 **** -0.24
5612 H 17.17140627235625 65.56756015153172 61.456155525871736 H 0.0 **** 0.06
5613 H 18.864514053037396 65.29117511744386 61.92957546124815 H 0.0 **** 0.06
5614 H 17.62625005628405 64.06548294652953 62.29519025694994 H 0.0 **** 0.06
5615 H 17.632344356063868 65.613274728519 63.17428104645151 H 0.0 **** 0.06
5616 C 106.38048547270172 99.28258499414174 92.13757104823502 C 0.0 **** -0.24
5617 H 107.21062412578961 99.0513408635448 91.4688546520367 H 0.0 **** 0.06
5618 H 105.52082645852884 99.60486299373159 91.55010886393626 H 0.0 **** 0.06
5619 H 106.67456302099504 100.07972232347406 92.82024814588905 H 0.0 **** 0.06
5620 H 106.11793716246507 98.39290025209412 92.70943726031363 H 0.0 **** 0.06
5621 C 113.99901507988405 61.036536193508766 54.610342200957774 C 0.0 **** -0.24
5622 H 114.03433949344887 60.444991126919035 53.696370601833486 H 0.0 **** 0.06
5623 H 114.5516762750417 60.52217398561538 55.396633931426834 H 0.0 **** 0.06
5624 H 112.96204856453787 61.16547593938799 54.91970366465392 H 0.0 **** 0.06
5625 H 114.44819933987472 62.01256311839077 54.428932578173395 H 0.0 **** 0.06
5626 C 69.66250342783889 70.00902118573514 81.93052617348977 C 0.0 **** -0.24
5627 H 69.80225653142469 70.83262449542285 82.62988169609174 H 0.0 **** 0.06
5628 H 70.46347154456379 70.0197228864228 81.19073893928817 H 0.0 **** 0.06
5629 H 68.70201319743012 70.1187891827787 81.42687344888292 H 0.0 **** 0.06
5630 H 69.68211417522377 69.06437402977458 82.47332787040432 H 0.0 **** 0.06
5631 C 104.10299676011701 28.510216063178973 76.84013891590817 C 0.0 **** -0.24
5632 H 105.07954725090777 28.577465685032372 77.31955436863296 H 0.0 **** 0.06
5633 H 103.47072639839523 27.820193835292123 77.39965398919222 H 0.0 **** 0.06
5634 H 104.224676279064 28.14658964129319 75.82018870629206 H 0.0 **** 0.06
5635 H 103.63917754960234 29.4960496436605 76.82147337055643 H 0.0 **** 0.06
5636 C 12.246118029297975 21.330508993684276 113.42484635623144 C 0.0 **** -0.24
5637 H 13.224073644803639 21.19386475310006 112.96367751573081 H 0.0 **** 0.06
5638 H 11.715177588636664 22.13788582777204 112.91847636532822 H 0.0 **** 0.06
5639 H 12.372423209088652 21.582225022939696 114.47756026001183 H 0.0 **** 0.06
5640 H 11.671973603245817 20.407699900240544 113.33819103462913 H 0.0 **** 0.06
5641 C 31.582244607719304 114.71905765889491 70.61471261077838 C 0.0 **** -0.24
5642 H 30.697455631154128 114.12709479015271 70.84863990057814 H 0.0 **** 0.06
5643 H 32.47604908632877 114.16145129006136 70.89494333557222 H 0.0 **** 0.06
5644 H 31.54895788805493 115.6560904448468 71.17025026659472 H 0.0 **** 0.06
5645 H 31.605303252739645 114.93018986288641 69.5462651553291 H 0.0 **** 0.06
5646 C 8.478519835959762 112.99381468945535 76.7733340409727 C 0.0 **** -0.24
5647 H 7.693175859518442 112.37520972537115 76.33760894537538 H 0.0 **** 0.06
5648 H 8.044757105959714 113.920972624738 77.14714760073402 H 0.0 **** 0.06
5649 H 9.22500508688248 113.22168536833564 76.0125237676303 H 0.0 **** 0.06
5650 H 8.950203063285151 112.45470519656254 77.59510375351925 H 0.0 **** 0.06
5651 C 6.445959165286183 17.192341942788858 26.467984214129245 C 0.0 **** -0.24
5652 H 6.200394884146917 17.087364632377728 27.52494330698994 H 0.0 **** 0.06
5653 H 7.081483757041227 18.06648349342504 26.327839391033024 H 0.0 **** 0.06
5654 H 5.529124848002823 17.313300154632657 25.89225387884187 H 0.0 **** 0.06
5655 H 6.973272571994286 16.300681946022962 26.127565903040704 H 0.0 **** 0.06
5656 C 109.57531703660332 101.66175070026658 88.58668209661414 C 0.0 **** -0.24
5657 H 109.96051972186575 102.47338053917807 89.20243476295082 H 0.0 **** 0.06
5658 H 109.70026852824145 101.913066023866 87.53385483790959 H 0.0 **** 0.06
5659 H 108.51652209213299 101.51420627271783 88.8015599967705 H 0.0 **** 0.06
5660 H 110.12206498715902 100.7456096777886 88.81024610711933 H 0.0 **** 0.06
5661 C 43.29160928595849 43.369095389224896 39.858499526981376 C 0.0 **** -0.24
5662 H 43.00841292726193 42.48632496542762 39.283583129556035 H 0.0 **** 0.06
5663 H 43.346760781474245 43.109904121726515 40.91619267764008 H 0.0 **** 0.06
5664 H 42.54580555574347 44.150640824672486 39.714294578900024 H 0.0 **** 0.06
5665 H 44.263106166829516 43.7266083046302 39.51972558686265 H 0.0 **** 0.06
5666 C 10.885261313181488 38.06121431239191 103.37940454314338 C 0.0 **** -0.24
5667 H 10.052577047848018 38.541987202612404 102.86559629166646 H 0.0 **** 0.06
5668 H 10.524647096050472 37.179672267198896 103.90902189327525 H 0.0 **** 0.06
5669 H 11.323545707298678 38.75991415397404 104.09243884030366 H 0.0 **** 0.06
5670 H 11.639446465850185 37.76478151744084 102.65082450413234 H 0.0 **** 0.06
5671 C 74.85310859479512 59.204908883962034 11.805342283040442 C 0.0 **** -0.24
5672 H 74.58992645077302 59.01927945871863 12.847211033343047 H 0.0 **** 0.06
5673 H 74.1410199307989 59.90850765721464 11.371946205220976 H 0.0 **** 0.06
5674 H 74.82205786274619 58.267777750168065 11.249917562700183 H 0.0 **** 0.06
5675 H 75.8567437624992 59.62561755688 11.754389883280869 H 0.0 **** 0.06
5676 C 13.17552020124829 59.32399098391079 15.18170289363212 C 0.0 **** -0.24
5677 H 12.12361742527856 59.05093772189775 15.267563470948318 H 0.0 **** 0.06
5678 H 13.595709554033672 59.46766654717385 16.177444239854083 H 0.0 **** 0.06
5679 H 13.264094049486658 60.249597809501665 14.612810777941348 H 0.0 **** 0.06
5680 H 13.71637490840585 58.52849599995125 14.669483753281582 H 0.0 **** 0.06
5681 C 82.45498901903011 9.423798398271458 26.794136561930912 C 0.0 **** -0.24
5682 H 81.56172016359102 9.139894326282445 26.236296194336674 H 0.0 **** 0.06
5683 H 83.3357361602902 9.011604536035932 26.301266120400072 H 0.0 **** 0.06
5684 H 82.38858010451659 9.031853153512358 27.809495801572155 H 0.0 **** 0.06
5685 H 82.53132747906258 10.510307197066822 26.828525370958232 H 0.0 **** 0.06
5686 C 7.102950246690625 18.274072698492517 69.68131997105974 C 0.0 **** -0.24
5687 H 6.2098401202405284 17.694497896853136 69.91437123579004 H 0.0 **** 0.06
5688 H 7.420054636826421 18.825191566872945 70.5666754674682 H 0.0 **** 0.06
5689 H 6.882329895599639 18.974724556137346 68.87571323273761 H 0.0 **** 0.06
5690 H 7.901205151976328 17.599628672258916 69.36797824233565 H 0.0 **** 0.06
5691 C 101.7556852981141 7.606402370561568 88.72659969654124 C 0.0 **** -0.24
5692 H 101.0091947060781 8.378909326510836 88.91315369354956 H 0.0 **** 0.06
5693 H 101.50992036605761 7.080440103028707 87.80408311469259 H 0.0 **** 0.06
5694 H 101.76272665862925 6.900859444333662 89.55727420491556 H 0.0 **** 0.06
5695 H 102.73873385126909 8.066525796627076 88.63209854317604 H 0.0 **** 0.06
5696 C 73.82578169469987 49.20227741557531 8.082664700488749 C 0.0 **** -0.24
5697 H 72.92877054300742 48.64616143963016 8.355038649273112 H 0.0 **** 0.06
5698 H 74.66594112521587 48.51444522715872 7.993560835170456 H 0.0 **** 0.06
5699 H 74.04147899423185 49.94296150781284 8.852399250653662 H 0.0 **** 0.06
5700 H 73.6648022817552 49.70509462867153 7.12916272264448 H 0.0 **** 0.06
5701 C 9.739353137252238 21.579780397385406 69.83032709629938 C 0.0 **** -0.24
5702 H 10.095882324431035 20.61532303387068 69.46837613555266 H 0.0 **** 0.06
5703 H 10.050458350541145 22.364573764793477 69.13919715300091 H 0.0 **** 0.06
5704 H 10.16011566532367 21.775508793963155 70.81597144006659 H 0.0 **** 0.06
5705 H 8.651172099453518 21.56300669829568 69.8954289986089 H 0.0 **** 0.06
5706 C 111.2648500944647 23.898082159203042 75.20304660490618 C 0.0 **** -0.24
5707 H 111.62711836078638 24.441388491079238 74.33080326879326 H 0.0 **** 0.06
5708 H 110.44648348529525 24.454021854590337 75.66294096986326 H 0.0 **** 0.06
5709 H 112.0752427037067 23.78304599646657 75.92266597533902 H 0.0 **** 0.06
5710 H 110.90838173028557 22.914313332686362 74.896815015269 H 0.0 **** 0.06
5711 C 7.901462564841978 37.350342987721945 86.68357941760678 C 0.0 **** -0.24
5712 H 7.336629467778863 36.56511037147828 87.18622429720713 H 0.0 **** 0.06
5713 H 8.958924957712739 37.085080774455406 86.67166993267097 H 0.0 **** 0.06
5714 H 7.7688540466867835 38.29182706495524 87.21843582638749 H 0.0 **** 0.06
5715 H 7.542409445157716 37.45918200450751 85.66082216116882 H 0.0 **** 0.06
5716 C 63.14555684016716 46.28711583481612 64.51362928734753 C 0.0 **** -0.24
5717 H 63.772733874095934 46.88354889075589 63.85169267166364 H 0.0 **** 0.06
5718 H 63.11753780438164 45.25736473446409 64.155936378907 H 0.0 **** 0.06
5719 H 62.135183093903095 46.696441082391175 64.52230742159574 H 0.0 **** 0.06
5720 H 63.557246785523716 46.3110012031167 65.52239804569224 H 0.0 **** 0.06
5721 C 32.43601952602676 5.670301421863726 31.58404560116263 C 0.0 **** -0.24
5722 H 32.02448717843657 5.85317796346996 32.576837558550025 H 0.0 **** 0.06
5723 H 33.476158661338125 5.355891955680846 31.674033727396647 H 0.0 **** 0.06
5724 H 32.38292776955102 6.585686831777167 30.995024932898147 H 0.0 **** 0.06
5725 H 31.860541528367555 4.8869873552632725 31.091128082853693 H 0.0 **** 0.06
5726 C 28.649637621321347 80.5734591702888 71.6945323634824 C 0.0 **** -0.24
5727 H 27.619796555346653 80.9299510764275 71.6566574354723 H 0.0 **** 0.06
5728 H 29.267773538762412 81.17904425733758 71.03118909900985 H 0.0 **** 0.06
5729 H 28.68416763195785 79.53189835244382 71.37360815410277 H 0.0 **** 0.06
5730 H 29.023272391585493 80.65271746597114 72.71457336096631 H 0.0 **** 0.06
5731 C 110.55808408041423 67.83188109982966 20.976971077832076 C 0.0 **** -0.24
5732 H 111.35879131360147 67.78076836286935 20.23958791183793 H 0.0 **** 0.06
5733 H 109.84148535592622 67.03203456871414 20.79022967637806 H 0.0 **** 0.06
5734 H 110.05493766027297 68.79605257097974 20.900953748554457 H 0.0 **** 0.06
5735 H 110.97693543523746 67.71918828213987 21.97627901274086 H 0.0 **** 0.06
5736 C 112.46882273709849 4.005672233777602 31.860964600112425 C 0.0 **** -0.24
5737 H 112.34828623100321 4.404892029443488 32.867528557960156 H 0.0 **** 0.06
5738 H 111.78089029231805 4.513006550023647 31.18369178408193 H 0.0 **** 0.06
5739 H 112.25238072442806 2.937451794584433 31.866111925039775 H 0.0 **** 0.06
5740 H 113.49373370064458 4.167338561058386 31.526526133367895 H 0.0 **** 0.06
5741 C 79.38549674199811 115.90915727566883 4.961910016719344 C 0.0 **** -0.24
5742 H 79.01903644643406 116.88521694178641 5.281027510706721 H 0.0 **** 0.06
5743 H 78.9789054790595 115.67230426102455 3.9784966895343103 H 0.0 **** 0.06
5744 H 79.07001029464692 115.15147230323282 5.678561457325102 H 0.0 **** 0.06
5745 H 80.47424256337823 115.9306276275691 4.910556972125519 H 0.0 **** 0.06
5746 C 8.721797978007203 10.645443989255085 73.76975272983645 C 0.0 **** -0.24
5747 H 9.312406164961828 11.55128796600738 73.6294913061324 H 0.0 **** 0.06
5748 H 9.349450382174183 9.867124950618631 74.20599188158155 H 0.0 **** 0.06
5749 H 8.34174939605225 10.307320000636423 72.80528300665424 H 0.0 **** 0.06
5750 H 7.886282858359465 10.856301309622182 74.4363314270177 H 0.0 **** 0.06
5751 C 76.11727157506601 91.34684563696067 95.47791626721818 C 0.0 **** -0.24
5752 H 75.56358961732582 91.04924339741672 96.36884937118491 H 0.0 **** 0.06
5753 H 76.25208894568641 90.48082690682253 94.82882192236958 H 0.0 **** 0.06
5754 H 77.09196851690149 91.73828921075653 95.76905600996517 H 0.0 **** 0.06
5755 H 75.56006082475682 92.11727576532289 94.94515540288982 H 0.0 **** 0.06
5756 C 56.80417290222151 11.666636403034346 25.939458372844285 C 0.0 **** -0.24
5757 H 55.8123736371509 11.45058401410651 25.54242798349418 H 0.0 **** 0.06
5758 H 56.94793938012569 11.121899027985421 26.873051430562725 H 0.0 **** 0.06
5759 H 56.89620398936367 12.736176269366524 26.125206154444612 H 0.0 **** 0.06
5760 H 57.55967657415164 11.356138471843764 25.21798296169476 H 0.0 **** 0.06
5761 C 34.98690622146347 54.28100221447528 47.5611284397948 C 0.0 **** -0.24
5762 H 33.922691121829786 54.13691593023998 47.373266929107245 H 0.0 **** 0.06
5763 H 35.55418247517818 53.50240149650844 47.050487502977546 H 0.0 **** 0.06
5764 H 35.1761930089385 54.22590431806083 48.632808544121445 H 0.0 **** 0.06
5765 H 35.29233166652716 55.25876612128593 47.18774575490414 H 0.0 **** 0.06
5766 C 56.90313827502969 0.48257182038773294 61.05527101189722 C 0.0 **** -0.24
5767 H 57.23408710171145 0.04850280532986062 60.11203801224474 H 0.0 **** 0.06
5768 H 57.75298531841038 0.9396880272790895 61.562469542937095 H 0.0 **** 0.06
5769 H 56.480732317387734 -0.29967525179910126 61.68688904995855 H 0.0 **** 0.06
5770 H 56.145477592372416 1.240814484310448 60.860430459529084 H 0.0 **** 0.06
5771 C 13.773418890729573 98.6583963254455 64.24435378173426 C 0.0 **** -0.24
5772 H 13.267210389619123 97.75427510034615 64.58363148073236 H 0.0 **** 0.06
5773 H 14.439678617707926 98.41297462077466 63.41709883981139 H 0.0 **** 0.06
5774 H 14.353194701224055 99.0793188311423 65.06513252465759 H 0.0 **** 0.06
5775 H 13.033095579675177 99.38635408383811 63.91099135171582 H 0.0 **** 0.06
5776 C 92.1370165282604 109.91132507104393 21.49003116650394 C 0.0 **** -0.24
5777 H 91.7662364119596 109.2140506290429 20.738382283782897 H 0.0 **** 0.06
5778 H 93.02676537233606 110.41446936933323 21.111034618761863 H 0.0 **** 0.06
5779 H 92.38726759057596 109.36496458717639 22.399904912116966 H 0.0 **** 0.06
5780 H 91.36733406904463 110.65102861056647 21.71039482374084 H 0.0 **** 0.06
5781 C 60.988746292000314 23.88693991530015 82.54490615349863 C 0.0 **** -0.24
5782 H 61.996731869572784 24.23482045626082 82.31994230339517 H 0.0 **** 0.06
5783 H 60.2669189650876 24.476750539158296 81.97970680197227 H 0.0 **** 0.06
5784 H 60.79576069181189 24.00131935087848 83.61139358207176 H 0.0 **** 0.06
5785 H 60.896835808550236 22.83696362652861 82.2687273032944 H 0.0 **** 0.06
5786 C 74.36451912179939 85.5211029161026 37.62466271018256 C 0.0 **** -0.24
5787 H 74.61420497067735 86.06409126397696 38.535711080524194 H 0.0 **** 0.06
5788 H 74.51122211346052 86.17120760769679 36.76203840821543 H 0.0 **** 0.06
5789 H 73.32311782585498 85.20182751690088 37.666317473317136 H 0.0 **** 0.06
5790 H 75.009195009059 84.64634359110524 37.5345809437419 H 0.0 **** 0.06
5791 C 57.50003219283934 90.23788367884862 110.32456924340528 C 0.0 **** -0.24
5792 H 57.97031425387536 90.03021393449256 109.36357153385491 H 0.0 **** 0.06
5793 H 57.62262216127414 89.37770554766252 110.98192285940463 H 0.0 **** 0.06
5794 H 56.43731702187199 90.43225384023577 110.17395265058155 H 0.0 **** 0.06
5795 H 57.96860049770078 91.11210090639736 110.77621680459112 H 0.0 **** 0.06
5796 C 58.45208222127195 104.79839773188056 103.53261673017839 C 0.0 **** -0.24
5797 H 58.93267898723673 104.58027115114902 102.57872097155338 H 0.0 **** 0.06
5798 H 57.39306567418015 104.54588406891645 103.47270512286752 H 0.0 **** 0.06
5799 H 58.56187169616999 105.85871288282883 103.75901146530646 H 0.0 **** 0.06
5800 H 58.92279733050191 104.20787145772266 104.31906545642124 H 0.0 **** 0.06
5801 C 55.84485857950847 48.516492117242024 6.253095522266689 C 0.0 **** -0.24
5802 H 54.9166306659209 49.06001298034302 6.0786921731412615 H 0.0 **** 0.06
5803 H 56.62609429158461 49.21804639086781 6.547987019498326 H 0.0 **** 0.06
5804 H 56.14277250271172 48.002762376074884 5.3395619700421815 H 0.0 **** 0.06
5805 H 55.693024320650494 47.78626645491687 7.048770372175111 H 0.0 **** 0.06
5806 C 37.6220453741243 5.543499243519136 38.01012070282707 C 0.0 **** -0.24
5807 H 38.317927595634444 4.900069710552742 37.47025589077822 H 0.0 **** 0.06
5808 H 36.61873948073696 5.1213212462693605 37.951771871600556 H 0.0 **** 0.06
5809 H 37.625593586541214 6.537234605393309 37.561310004122845 H 0.0 **** 0.06
5810 H 37.92826454107157 5.614535727728224 39.053296686539795 H 0.0 **** 0.06
5811 C 16.325358681219143 41.40897145021113 66.65638052632178 C 0.0 **** -0.24
5812 H 15.614190820587993 40.76323669532582 66.14072901179235 H 0.0 **** 0.06
5813 H 15.91204117321837 42.41440678590785 66.73629909959527 H 0.0 **** 0.06
5814 H 17.258221808360986 41.442672507458845 66.09329332358747 H 0.0 **** 0.06
5815 H 16.516557236711805 41.01314741062294 67.65380320263642 H 0.0 **** 0.06
5816 C 86.9856518094031 61.75087625311494 2.6549354826615286 C 0.0 **** -0.24
5817 H 88.0520575658876 61.78660130757538 2.430211011138283 H 0.0 **** 0.06
5818 H 86.43437139622694 61.48111687693722 1.7533411051306302 H 0.0 **** 0.06
5819 H 86.65534213805833 62.7291630946163 3.003863726585166 H 0.0 **** 0.06
5820 H 86.80206287143005 61.0068562850131 3.4302186285146945 H 0.0 **** 0.06
5821 C 54.06550049517497 104.86343347732773 65.56194993032385 C 0.0 **** -0.24
5822 H 53.4871663972759 104.3246417887475 66.31247157467713 H 0.0 **** 0.06
5823 H 55.095412101747826 104.96896122006585 65.90359091003266 H 0.0 **** 0.06
5824 H 53.63015779023726 105.85081037294408 65.40927010452347 H 0.0 **** 0.06
5825 H 54.04757744434244 104.30897630006791 64.62348278782484 H 0.0 **** 0.06
5826 C 75.37240491660839 56.90361002679754 50.2088666002235 C 0.0 **** -0.24
5827 H 76.19826923582309 56.40313187701145 49.704082231936724 H 0.0 **** 0.06
5828 H 75.35634219695015 56.60846412752949 51.2593843790346 H 0.0 **** 0.06
5829 H 74.43200169289491 56.61857128591862 49.73680699947117 H 0.0 **** 0.06
5830 H 75.50275895463784 57.98303728572796 50.136381207397704 H 0.0 **** 0.06
5831 C 69.21405938401062 53.6482392560828 115.71224792622178 C 0.0 **** -0.24
5832 H 69.38361876286206 53.717341505472035 116.78694791841471 H 0.0 **** 0.06
5833 H 69.47701158255364 52.64717498256542 115.36726076695771 H 0.0 **** 0.06
5834 H 69.8332347687824 54.38349696930072 115.19854131800383 H 0.0 **** 0.06
5835 H 68.16445890864918 53.842864166724695 115.49681018994247 H 0.0 **** 0.06
5836 C 56.86993336357716 107.34174193897996 93.5420222851941 C 0.0 **** -0.24
5837 H 57.77879534336182 106.74010701416887 93.54371553981953 H 0.0 **** 0.06
5838 H 56.25872887604169 107.07463928829941 92.6784228692034 H 0.0 **** 0.06
5839 H 57.13326021546163 108.39822512379754 93.48761802439691 H 0.0 **** 0.06
5840 H 56.30815138715798 107.15370468699263 94.45682310546161 H 0.0 **** 0.06
5841 C 111.46374896649486 114.11879856266683 13.933928870665767 C 0.0 **** -0.24
5842 H 110.63632359341105 113.48021730671934 13.625887086952787 H 0.0 **** 0.06
5843 H 112.07432730657557 113.59374125644712 14.669219649293268 H 0.0 **** 0.06
5844 H 111.07089487910793 115.03442657400734 14.376593073795846 H 0.0 **** 0.06
5845 H 112.07442731110805 114.36875857965185 13.066076043042614 H 0.0 **** 0.06
5846 C 1.3998730682832559 107.21018789689117 62.83168843797543 C 0.0 **** -0.24
5847 H 0.5569897800075694 107.8663582129571 63.05360048197579 H 0.0 **** 0.06
5848 H 2.167620670046688 107.33534497152823 63.59495828334309 H 0.0 **** 0.06
5849 H 1.8116078437580825 107.46646347649732 61.855605528135 H 0.0 **** 0.06
5850 H 1.0603691510040676 106.17462106327821 62.821943812248435 H 0.0 **** 0.06
5851 C 81.72262947777557 115.1479107083025 69.17896833254818 C 0.0 **** -0.24
5852 H 80.7360129550234 115.59775436775735 69.06842392110485 H 0.0 **** 0.06
5853 H 82.44942650465896 115.71852937793022 68.59909068755935 H 0.0 **** 0.06
5854 H 81.69583428028278 114.12029230160118 68.81706370641193 H 0.0 **** 0.06
5855 H 82.0095228803803 115.1562383683071 70.23055351016356 H 0.0 **** 0.06
5856 C 97.44384936776919 109.09519702807928 31.822454200779532 C 0.0 **** -0.24
5857 H 97.23788465783173 108.50028489645112 32.71301847384251 H 0.0 **** 0.06
5858 H 97.87521863305011 110.05174921481753 32.11682132462005 H 0.0 **** 0.06
5859 H 96.51621723910063 109.2659778927547 31.27693331540837 H 0.0 **** 0.06
5860 H 98.1479375900974 108.55988326710757 31.184125444471817 H 0.0 **** 0.06
5861 C 109.03136905464402 6.246613772862316 106.38630937593345 C 0.0 **** -0.24
5862 H 108.1936353943434 5.561665665307206 106.51572705490122 H 0.0 **** 0.06
5863 H 108.66011493022029 7.215339074290737 106.0520426959485 H 0.0 **** 0.06
5864 H 109.718253540489 5.843954393729327 105.64120217557155 H 0.0 **** 0.06
5865 H 109.55386713503583 6.364615802460275 107.33600189107796 H 0.0 **** 0.06
5866 C 62.64452124003719 48.36313435560311 44.35741932052997 C 0.0 **** -0.24
5867 H 63.07649353582681 49.312458159475796 44.04112548361178 H 0.0 **** 0.06
5868 H 62.387576322602854 48.41502198956178 45.41558922936855 H 0.0 **** 0.06
5869 H 63.36748172358347 47.56325466485123 44.19658341776841 H 0.0 **** 0.06
5870 H 61.74474087503668 48.162241716525216 43.77476841924744 H 0.0 **** 0.06
5871 C 113.48163616390464 46.43507327469946 70.37242633024317 C 0.0 **** -0.24
5872 H 114.46105733075937 46.23147274812152 70.80497175126786 H 0.0 **** 0.06
5873 H 113.60608029670111 46.8794734005166 69.3849817820875 H 0.0 **** 0.06
5874 H 112.93668519076496 47.12592906123598 71.01640173492251 H 0.0 **** 0.06
5875 H 112.9230969013561 45.50252533892419 70.28510016953987 H 0.0 **** 0.06
5876 C 4.424635566595862 5.631602766590049 79.9444406016539 C 0.0 **** -0.24
5877 H 4.8262636426291365 6.149290221625563 80.81572652545844 H 0.0 **** 0.06
5878 H 4.516566777002838 4.554695212875231 80.08758863639055 H 0.0 **** 0.06
5879 H 4.980849809759967 5.929696527101555 79.05560125212328 H 0.0 **** 0.06
5880 H 3.373734264404053 5.892877336662991 79.8196863913687 H 0.0 **** 0.06
5881 C 68.18416981753157 27.52119836304677 29.841782518961622 C 0.0 **** -0.24
5882 H 67.91969205303 27.91286910571216 28.859469887280653 H 0.0 **** 0.06
5883 H 68.63090176322856 28.315662821631797 30.441357758647 H 0.0 **** 0.06
5884 H 68.89920961415034 26.706447800188613 29.72729597094849 H 0.0 **** 0.06
5885 H 67.28769884270503 27.150381802598233 30.339003235011717 H 0.0 **** 0.06
5886 C 11.195406739988897 91.53634704468978 78.27282712715711 C 0.0 **** -0.24
5887 H 11.05502197018842 90.47116826741487 78.45806716828282 H 0.0 **** 0.06
5888 H 10.48501849554708 92.10601681995345 78.87259999160818 H 0.0 **** 0.06
5889 H 11.02981231503486 91.74615890448528 77.21617485902722 H 0.0 **** 0.06
5890 H 12.211529176796319 91.8211135507637 78.54473842180306 H 0.0 **** 0.06
5891 C 49.495751229804966 45.65366593878312 16.212438431193732 C 0.0 **** -0.24
5892 H 50.02755247663504 46.170682195820135 15.413637339813505 H 0.0 **** 0.06
5893 H 49.67031042742747 44.58057285912895 16.129746685239567 H 0.0 **** 0.06
5894 H 48.428545013910224 45.85635328865834 16.1286635896562 H 0.0 **** 0.06
5895 H 49.85853747891164 46.00751605286942 17.17785638791976 H 0.0 **** 0.06
5896 C 91.72048297776212 2.864215755400778 42.24552279814969 C 0.0 **** -0.24
5897 H 91.48643190346007 2.352794817020097 41.31145732253367 H 0.0 **** 0.06
5898 H 91.67234869828548 3.9423890321187685 42.0910978644298 H 0.0 **** 0.06
5899 H 92.72453257462394 2.5874044726651846 42.568137918302824 H 0.0 **** 0.06
5900 H 91.00040715170161 2.573555548529427 43.00988655593096 H 0.0 **** 0.06
5901 C 73.10251226050408 44.283508961121186 42.57573647841313 C 0.0 **** -0.24
5902 H 74.05283566844584 44.49615787814716 42.085590133382915 H 0.0 **** 0.06
5903 H 72.28999250500716 44.393970766264005 41.85688499895764 H 0.0 **** 0.06
5904 H 72.95592070397025 44.98053122821946 43.40086582133429 H 0.0 **** 0.06
5905 H 73.11260441859477 43.26347213456188 42.96014327954562 H 0.0 **** 0.06
5906 C 21.95275890042346 96.55722573914454 29.104843996102375 C 0.0 **** -0.24
5907 H 21.074569054064593 97.16706720698895 28.89199299052433 H 0.0 **** 0.06
5908 H 21.976750644793775 95.70509934185132 28.42553879510683 H 0.0 **** 0.06
5909 H 21.90782346897883 96.20135917334146 30.134241082147753 H 0.0 **** 0.06
5910 H 22.85307144163982 97.15742233742888 28.96694902534705 H 0.0 **** 0.06
5911 C 80.232862209029 53.670343281258425 46.209592681497014 C 0.0 **** -0.24
5912 H 80.99674841047765 53.4812542837866 46.96297685043601 H 0.0 **** 0.06
5913 H 80.3949295680599 53.01294342429992 45.35477035284828 H 0.0 **** 0.06
5914 H 80.29086968713537 54.70887484393481 45.88637018489706 H 0.0 **** 0.06
5915 H 79.24787398651725 53.47668117156917 46.635403431915364 H 0.0 **** 0.06
5916 C 107.02440255765427 31.485361274307238 7.079266112524067 C 0.0 **** -0.24
5917 H 106.18893501317874 31.20358491864897 6.437112146396487 H 0.0 **** 0.06
5918 H 106.75028287570342 31.327860559599543 8.121828537373176 H 0.0 **** 0.06
5919 H 107.26446891542145 32.53672370501985 6.920780347059548 H 0.0 **** 0.06
5920 H 107.8929099587004 30.87314450397548 6.833743917789718 H 0.0 **** 0.06
5921 C 7.763277498621065 56.16451074694963 91.4643505341279 C 0.0 **** -0.24
5922 H 7.065533697930462 56.17313292124615 90.62712607953793 H 0.0 **** 0.06
5923 H 7.376447977250464 56.794240301504814 92.26659068479731 H 0.0 **** 0.06
5924 H 8.730161421336675 56.547329644411334 91.13676579493247 H 0.0 **** 0.06
5925 H 7.8814698096721685 55.1437839124439 91.82851654287711 H 0.0 **** 0.06
5926 C 73.33257290923663 7.081407966464496 102.95022024066958 C 0.0 **** -0.24
5927 H 73.30268177977536 7.7582810650824285 103.80416514084996 H 0.0 **** 0.06
5928 H 72.31476906001883 6.837036432560353 102.6447247720208 H 0.0 **** 0.06
5929 H 73.85824510233749 6.168881806918648 103.22977212400502 H 0.0 **** 0.06
5930 H 73.85562256161003 7.562905947079344 102.12388476495818 H 0.0 **** 0.06
5931 C 1.438255773722375 34.483070209479195 95.53931822061735 C 0.0 **** -0.24
5932 H 1.4737306421535976 33.39928522400555 95.43305374676972 H 0.0 **** 0.06
5933 H 0.6493562711001317 34.88565543005848 94.90310966095642 H 0.0 **** 0.06
5934 H 2.397042416902309 34.908421126455266 95.24187518986011 H 0.0 **** 0.06
5935 H 1.2331698015172776 34.73931655900972 96.57835915459313 H 0.0 **** 0.06
5936 C 12.329545562289127 50.10475560031054 37.38350030281913 C 0.0 **** -0.24
5937 H 12.345397187566249 50.92622852808742 36.66750904109688 H 0.0 **** 0.06
5938 H 12.536363423512 50.49022378959275 38.38261105021536 H 0.0 **** 0.06
5939 H 13.090319652402513 49.372614217441765 37.11211800132321 H 0.0 **** 0.06
5940 H 11.347947991418735 49.63106060845061 37.37237311166746 H 0.0 **** 0.06
5941 C 57.803869906627995 110.28594219097965 104.81154538920414 C 0.0 **** -0.24
5942 H 57.84374902889863 110.48105257085318 105.88238573686596 H 0.0 **** 0.06
5943 H 58.61075557984759 110.8233902472772 104.31395759042759 H 0.0 **** 0.06
5944 H 56.84507544452407 110.62162227664872 104.41704749962267 H 0.0 **** 0.06
5945 H 57.91583199479027 109.21571173153082 104.63262386119858 H 0.0 **** 0.06
5946 C 49.263771477043804 15.412053871631656 17.337129347194207 C 0.0 **** -0.24
5947 H 48.59741948675946 16.148197453497005 16.888563686979325 H 0.0 **** 0.06
5948 H 49.43452982300607 14.598949687735853 16.631332813445965 H 0.0 **** 0.06
5949 H 48.80778253813412 15.015805892011144 18.24583960225013 H 0.0 **** 0.06
5950 H 50.214548504433196 15.885036268569309 17.584297891141688 H 0.0 **** 0.06
5951 C 40.25213064116545 4.684405167916722 62.431857302475166 C 0.0 **** -0.24
5952 H 40.90996683369994 3.8325411440482924 62.60639906620246 H 0.0 **** 0.06
5953 H 39.527317366671156 4.755793312041192 63.24259091068811 H 0.0 **** 0.06
5954 H 39.72826673719098 4.551488674022693 61.485833354204445 H 0.0 **** 0.06
5955 H 40.845805657334125 5.59829993294629 62.393452275449334 H 0.0 **** 0.06
5956 C 100.85131235209374 32.4970229987772 77.09426074910378 C 0.0 **** -0.24
5957 H 101.12140044199239 33.505140060488685 76.7793734919555 H 0.0 **** 0.06
5958 H 99.90694735859063 32.52683795150256 77.63770842713525 H 0.0 **** 0.06
5959 H 101.6313250303602 32.09721009508107 77.74248789966487 H 0.0 **** 0.06
5960 H 100.74677926472101 31.858905772155452 76.2167290987266 H 0.0 **** 0.06
5961 C 6.186604130111377 100.74491886626765 26.57841993265049 C 0.0 **** -0.24
5962 H 6.304144491865657 100.95790634689328 27.64131418763128 H 0.0 **** 0.06
5963 H 6.7731046020550565 101.457391243551 25.9983700558372 H 0.0 **** 0.06
5964 H 5.135815810479798 100.83066552713586 26.304084561701416 H 0.0 **** 0.06
5965 H 6.535390321837298 99.73340790044733 26.37077768664477 H 0.0 **** 0.06
5966 C 72.80013031881042 14.739727053253034 35.05000654621293 C 0.0 **** -0.24
5967 H 73.31314383827335 14.609215598579851 34.096977446619434 H 0.0 **** 0.06
5968 H 72.75699621046734 15.800888654985556 35.29629110727322 H 0.0 **** 0.06
5969 H 73.34200052192122 14.205927173934299 35.830731161944755 H 0.0 **** 0.06
5970 H 71.7870690418027 14.34291713075055 34.9739580749046 H 0.0 **** 0.06
5971 C 55.987420933872194 45.693766645778105 51.40257715004071 C 0.0 **** -0.24
5972 H 55.40947939086471 44.778714336994206 51.28033028651569 H 0.0 **** 0.06
5973 H 56.805856791976154 45.70579730930584 50.681673097206556 H 0.0 **** 0.06
5974 H 56.3921690010675 45.735360822004445 52.4133181784409 H 0.0 **** 0.06
5975 H 55.342634379070816 46.556368133467195 51.234343597862164 H 0.0 **** 0.06
5976 C 2.534810417251876 83.00810052420586 39.940654220022395 C 0.0 **** -0.24
5977 H 2.3225348593957307 84.0761260875134 39.896631343868336 H 0.0 **** 0.06
5978 H 1.6005071911116886 82.44946909574587 39.87515589993572 H 0.0 **** 0.06
5979 H 3.0334743383866254 82.77461876019701 40.88064040984642 H 0.0 **** 0.06
5980 H 3.1819020066150188 82.73251858676241 39.10813658939685 H 0.0 **** 0.06
5981 C 89.85905778953133 102.72347212179527 28.425169210050115 C 0.0 **** -0.24
5982 H 90.06183820367096 101.93387888378619 29.14824744746784 H 0.0 **** 0.06
5983 H 90.74818788029245 103.34383080013481 28.30592394962747 H 0.0 **** 0.06
5984 H 89.03187736168269 103.33736635894509 28.77948245545143 H 0.0 **** 0.06
5985 H 89.59527004522334 102.27839270583382 27.465039023713558 H 0.0 **** 0.06
5986 C 108.52979178036014 75.22894157320067 36.63192791251359 C 0.0 **** -0.24
5987 H 108.94917067293903 76.04064797044356 36.038500954097685 H 0.0 **** 0.06
5988 H 107.45817200129687 75.38960821093286 36.75917163104697 H 0.0 **** 0.06
5989 H 109.012609576194 75.2048410803163 37.60926242045457 H 0.0 **** 0.06
5990 H 108.69623625260974 74.28096317372987 36.12057213455259 H 0.0 **** 0.06
5991 C 77.20400346985383 47.36174194764234 79.89604749095955 C 0.0 **** -0.24
5992 H 76.55431117425036 46.76462307066218 79.25518979004161 H 0.0 **** 0.06
5993 H 76.78756112065048 48.363373762113035 80.00152268160642 H 0.0 **** 0.06
5994 H 78.1956638439521 47.425594264220386 79.448533114173 H 0.0 **** 0.06
5995 H 77.2766337312824 46.892479701586716 80.87699617627018 H 0.0 **** 0.06
5996 C 75.88623532106513 32.79174868516861 105.97511471960904 C 0.0 **** -0.24
5997 H 76.7097907309687 32.29193669303312 105.46364810128406 H 0.0 **** 0.06
5998 H 75.83479002424215 33.830610703510274 105.6494037514274 H 0.0 **** 0.06
5999 H 76.05192795821225 32.75583006651752 107.05186369623588 H 0.0 **** 0.06
6000 H 74.95070421647927 32.2875598308307 105.73389349794087 H 0.0 **** 0.06
6001 C 93.03205961546746 51.106240796443615 91.42505592563538 C 0.0 **** -0.24
6002 H 93.37980935132816 51.8569674233558 92.13528705357311 H 0.0 **** 0.06
6003 H 93.50763413915297 51.273216781754115 90.45786125684151 H 0.0 **** 0.06
6004 H 91.95008700348978 51.18267412728608 91.31687656954944 H 0.0 **** 0.06
6005 H 93.2915993040491 50.11267695951017 91.79113601421523 H 0.0 **** 0.06
6006 C 22.12798376659353 52.10722885143784 31.2017993313911 C 0.0 **** -0.24
6007 H 22.843748402926366 52.9138615753105 31.36075906308878 H 0.0 **** 0.06
6008 H 21.264882521148053 52.25535252119791 31.851256185578336 H 0.0 **** 0.06
6009 H 22.599100221232135 51.152386238822885 31.435042603561612 H 0.0 **** 0.06
6010 H 21.803475472845236 52.10844559712859 30.16123100580637 H 0.0 **** 0.06
6011 C 86.99603483863575 17.645392830856565 95.72373703948927 C 0.0 **** -0.24
6012 H 86.98346865152587 16.983360441049854 96.58973517845581 H 0.0 **** 0.06
6013 H 86.13593947119386 17.4299150744705 95.0891041551157 H 0.0 **** 0.06
6014 H 87.91346753823768 17.485394055049028 95.15787296355644 H 0.0 **** 0.06
6015 H 86.95103076600896 18.681355260402256 96.05749136340287 H 0.0 **** 0.06
6016 C 59.26956175724581 77.57555911170597 93.53658874260742 C 0.0 **** -0.24
6017 H 58.33482869163146 77.41457919035751 94.07403561170975 H 0.0 **** 0.06
6018 H 59.08465524203211 77.52979609017811 92.46383582479166 H 0.0 **** 0.06
6019 H 59.985528553686606 76.80232945428808 93.81542920862739 H 0.0 **** 0.06
6020 H 59.672532277019144 78.55513895906812 93.79536796112347 H 0.0 **** 0.06
6021 C 76.13229082665106 28.459327045271188 16.638823652492135 C 0.0 **** -0.24
6022 H 75.79263378687159 28.616320128292607 15.614487336522757 H 0.0 **** 0.06
6023 H 75.27453406912969 28.241043192135393 17.276070964578395 H 0.0 **** 0.06
6024 H 76.63181617606813 29.358740744028495 16.997218561117137 H 0.0 **** 0.06
6025 H 76.82803396985366 27.62103269406022 16.666347866004173 H 0.0 **** 0.06
6026 C 84.03109200548363 5.352488540296008 25.84993570031918 C 0.0 **** -0.24
6027 H 83.65763347409309 5.770332922171065 24.915105584946787 H 0.0 **** 0.06
6028 H 85.09136925146795 5.582713089656238 25.95346039119454 H 0.0 **** 0.06
6029 H 83.89137607702047 4.2716282435720245 25.845691281775885 H 0.0 **** 0.06
6030 H 83.48126961027829 5.786539631248331 26.685353899914844 H 0.0 **** 0.06
6031 C 44.34455589838993 46.849602522176134 110.89170301440379 C 0.0 **** -0.24
6032 H 45.31925893060628 47.053197801006576 110.44774294446051 H 0.0 **** 0.06
6033 H 43.604803131503786 46.723016032195495 110.10113153274568 H 0.0 **** 0.06
6034 H 44.05630603692174 47.685507139685505 111.53035873783506 H 0.0 **** 0.06
6035 H 44.39931767570056 45.93930605122666 111.48769795192351 H 0.0 **** 0.06
6036 C 3.272392835154534 29.43934420403832 101.52700544713872 C 0.0 **** -0.24
6037 H 4.090175295118129 29.742544701696943 102.18104893308549 H 0.0 **** 0.06
6038 H 2.4430196147505967 30.137417263507473 101.63408735721117 H 0.0 **** 0.06
6039 H 2.941600087576205 28.43654701301017 101.79998820849772 H 0.0 **** 0.06
6040 H 3.6158082035644554 29.438729194355915 100.4922957842073 H 0.0 **** 0.06
6041 C 74.02250921302607 62.79751815749057 89.46414212986548 C 0.0 **** -0.24
6042 H 73.30180517454477 63.53541312691476 89.81738608273926 H 0.0 **** 0.06
6043 H 73.81903575842571 62.56266193380685 88.41858019685208 H 0.0 **** 0.06
6044 H 73.9388775886826 61.8915710510355 90.06394469025241 H 0.0 **** 0.06
6045 H 75.03039657717568 63.2024238229028 89.55672739833437 H 0.0 **** 0.06
6046 C 115.19676297935393 0.974032514105545 31.21941738253389 C 0.0 **** -0.24
6047 H 114.31747784469448 0.7742068951815213 30.60660096846908 H 0.0 **** 0.06
6048 H 115.0471119912491 1.8985487944322585 31.777087342619694 H 0.0 **** 0.06
6049 H 116.0718124645169 1.073688982988159 30.57736635046635 H 0.0 **** 0.06
6050 H 115.34896970227935 0.15010523776683726 31.91657267933823 H 0.0 **** 0.06
6051 C 60.46507251610849 92.04873031441666 80.89453494439292 C 0.0 **** -0.24
6052 H 59.41677604180492 92.32371120152577 81.01605710837464 H 0.0 **** 0.06
6053 H 61.03573002816201 92.92410839286714 80.58364138440268 H 0.0 **** 0.06
6054 H 60.55077188553567 91.27080088006372 80.13682597367648 H 0.0 **** 0.06
6055 H 60.85455250888124 91.67762856049556 81.84204870466846 H 0.0 **** 0.06
6056 C 20.38331184983926 4.211486829815533 108.54125428560357 C 0.0 **** -0.24
6057 H 21.1242261678118 4.753974155607757 109.12717658481803 H 0.0 **** 0.06
6058 H 20.703760916875012 4.16701511687223 107.5002757903256 H 0.0 **** 0.06
6059 H 19.423517194648895 4.724054320597967 108.60532719438737 H 0.0 **** 0.06
6060 H 20.28035431743413 3.1995712020214473 108.93375281144581 H 0.0 **** 0.06
6061 C 90.44176443815155 98.74695930806172 65.57539531355462 C 0.0 **** -0.24
6062 H 89.7465133515156 99.5868498558059 65.58198242512839 H 0.0 **** 0.06
6063 H 90.61977701237997 98.41531093734801 66.59804012014155 H 0.0 **** 0.06
6064 H 91.38360959459442 99.0601603747379 65.12448582254314 H 0.0 **** 0.06
6065 H 90.01657941364452 97.9277787579907 64.99518974931499 H 0.0 **** 0.06
6066 C 2.057510365620077 77.22114355731333 79.88975925879919 C 0.0 **** -0.24
6067 H 2.6822671431043545 77.99634971069077 80.33498619185957 H 0.0 **** 0.06
6068 H 2.610659647470852 76.28188573538398 79.86166621151051 H 0.0 **** 0.06
6069 H 1.7835899972837073 77.51245229513643 78.87593857259657 H 0.0 **** 0.06
6070 H 1.1559876182731337 77.09466269901475 80.48827142870374 H 0.0 **** 0.06
6071 C 38.55495953683885 65.14088600342407 45.827978649599004 C 0.0 **** -0.24
6072 H 39.564894922924566 65.55163738195702 45.826426741842624 H 0.0 **** 0.06
6073 H 37.90945599862914 65.76748033246787 46.442774742408744 H 0.0 **** 0.06
6074 H 38.57612313824063 64.12975702995118 46.23437236074335 H 0.0 **** 0.06
6075 H 38.1726361677122 65.11435738562642 44.80724672305868 H 0.0 **** 0.06
6076 C 6.38867408990248 107.73229932308692 110.69846948765431 C 0.0 **** -0.24
6077 H 6.843946728054377 108.47880614979186 110.04801817507192 H 0.0 **** 0.06
6078 H 6.232034465440165 108.16108146661827 111.68861821100299 H 0.0 **** 0.06
6079 H 7.047927317235349 106.8680356331644 110.77619967854 H 0.0 **** 0.06
6080 H 5.430475665314731 107.4221406599799 110.28065256235757 H 0.0 **** 0.06
6081 C 73.99796137159248 56.573961771893494 43.63342536144242 C 0.0 **** -0.24
6082 H 74.91110891020531 57.13697948751816 43.827938113191635 H 0.0 **** 0.06
6083 H 73.39787969381082 56.53029994628355 44.542486523204985 H 0.0 **** 0.06
6084 H 74.25615532876397 55.56285736180972 43.317975952852066 H 0.0 **** 0.06
6085 H 73.42866909049482 57.06674867906733 42.84552632283351 H 0.0 **** 0.06
6086 C 89.04644900023595 17.119633665214508 101.2850067256993 C 0.0 **** -0.24
6087 H 89.44508713232517 17.883956237126824 101.95218601724162 H 0.0 **** 0.06
6088 H 89.81225810365316 16.827749968432897 100.56738858532708 H 0.0 **** 0.06
6089 H 88.18168363123988 17.516518802509722 100.75421341349221 H 0.0 **** 0.06
6090 H 88.7459882197108 16.24926798440316 101.86974730746391 H 0.0 **** 0.06
6091 C 33.399765494583676 18.42728697457187 67.63102872923699 C 0.0 **** -0.24
6092 H 34.08594485936686 19.035440511809526 67.03979964468441 H 0.0 **** 0.06
6093 H 32.494497733519154 18.236435683894086 67.05320287552577 H 0.0 **** 0.06
6094 H 33.141571143643375 18.958925992397653 68.54613588564003 H 0.0 **** 0.06
6095 H 33.87831791792098 17.480893415845387 67.88199354527679 H 0.0 **** 0.06
6096 C 14.160095445418424 103.32238688759097 34.83017070933222 C 0.0 **** -0.24
6097 H 13.883018203491353 103.1509526037172 33.78982314040566 H 0.0 **** 0.06
6098 H 15.16442980295044 102.93681377885555 35.00531186961251 H 0.0 **** 0.06
6099 H 13.453920190764883 102.8084409480809 35.48231765295324 H 0.0 **** 0.06
6100 H 14.137727770416344 104.39129266875962 35.04037447594891 H 0.0 **** 0.06
6101 C 87.32787977588185 83.16649803582493 64.82104090725926 C 0.0 **** -0.24
6102 H 87.50767908668217 83.63566188111406 63.85405434360155 H 0.0 **** 0.06
6103 H 87.60612658163558 82.1134691221975 64.77102675407036 H 0.0 **** 0.06
6104 H 86.27113781059978 83.25130831318921 65.07522433062263 H 0.0 **** 0.06
6105 H 87.9259603398994 83.66450635221463 65.58313264620068 H 0.0 **** 0.06
6106 C 21.327973217606043 37.768286289105426 71.02667760882039 C 0.0 **** -0.24
6107 H 21.967211639270488 36.99346486098871 71.44904179648762 H 0.0 **** 0.06
6108 H 20.298656021394834 37.411141668378214 70.99180078701184 H 0.0 **** 0.06
6109 H 21.665210491940343 38.0068324175022 70.01746832509686 H 0.0 **** 0.06
6110 H 21.381591380681932 38.66232263955381 71.64826965862893 H 0.0 **** 0.06
6111 C 7.543857985496643 62.27616927939323 16.304798462830604 C 0.0 **** -0.24
6112 H 6.621240272775893 62.85677739459058 16.315584860572898 H 0.0 **** 0.06
6113 H 8.392302853150497 62.94600665003186 16.164044166999645 H 0.0 **** 0.06
6114 H 7.509664032257575 61.555426205702375 15.486622528055932 H 0.0 **** 0.06
6115 H 7.651673344369101 61.746477207246855 17.25055563509622 H 0.0 **** 0.06
6116 C 29.16306341695315 12.87336858051583 80.64788887853442 C 0.0 **** -0.24
6117 H 29.78960272181081 12.286765273379121 79.97470709639805 H 0.0 **** 0.06
6118 H 29.71649910672633 13.092122776653742 81.56055586949967 H 0.0 **** 0.06
6119 H 28.265423559850007 12.306123289101944 80.89356958186158 H 0.0 **** 0.06
6120 H 28.881265712298102 13.805768442770656 80.16018300273419 H 0.0 **** 0.06
6121 C 45.62098434188454 47.27159085897733 8.268754638811714 C 0.0 **** -0.24
6122 H 46.53754811219784 46.70849057262386 8.441882978825817 H 0.0 **** 0.06
6123 H 45.31129563990498 47.1492666632451 7.230150606229159 H 0.0 **** 0.06
6124 H 45.79987720725114 48.3276521597563 8.471940394803767 H 0.0 **** 0.06
6125 H 44.83625890482108 46.90233846470197 8.928399364921262 H 0.0 **** 0.06
6126 C 61.0636964573151 95.02016405680547 1.607748914436172 C 0.0 **** -0.24
6127 H 61.24626120433135 95.99479010847256 2.059561579707008 H 0.0 **** 0.06
6128 H 60.466204330688015 95.1446033912045 0.7040771699508781 H 0.0 **** 0.06
6129 H 60.52544951689663 94.38721057430146 2.313993724817607 H 0.0 **** 0.06
6130 H 62.01532455840139 94.553282337724 1.353233716544068 H 0.0 **** 0.06
6131 C 100.13014707042174 12.561921104643261 42.79880570764433 C 0.0 **** -0.24
6132 H 99.86700869619962 13.558444473904302 43.1528436979241 H 0.0 **** 0.06
6133 H 100.9508877203525 12.168402126266386 43.39936479094479 H 0.0 **** 0.06
6134 H 100.43804983506229 12.617244336183461 41.754685130858086 H 0.0 **** 0.06
6135 H 99.26562691393679 11.903754211772167 42.88826419818201 H 0.0 **** 0.06
6136 C 75.76755157332042 70.25107119697334 86.21541803444256 C 0.0 **** -0.24
6137 H 75.16867745926149 70.15654669870077 85.30948289311252 H 0.0 **** 0.06
6138 H 75.81035749730415 71.29857377612066 86.51511554818055 H 0.0 **** 0.06
6139 H 76.7766836595764 69.88631398636808 86.02377731587904 H 0.0 **** 0.06
6140 H 75.31350103955432 69.66272024303899 87.013394774591 H 0.0 **** 0.06
6141 C 91.21241850817077 100.5262273655538 54.84082239442951 C 0.0 **** -0.24
6142 H 90.17530578278708 100.21242661187567 54.962345552678926 H 0.0 **** 0.06
6143 H 91.5575861511926 100.2602873818184 53.84202574804398 H 0.0 **** 0.06
6144 H 91.8323597373517 100.026565056461 55.58539678236743 H 0.0 **** 0.06
6145 H 91.28267784506568 101.60546118347007 54.97491013026108 H 0.0 **** 0.06
6146 C 114.11518639838839 23.75746449120973 43.915690519954694 C 0.0 **** -0.24
6147 H 113.82186963945426 23.133721310457673 44.759916947406 H 0.0 **** 0.06
6148 H 113.27040883072678 24.374753263447758 43.60880449743786 H 0.0 **** 0.06
6149 H 114.42180843320772 23.12236945947194 43.08432669660226 H 0.0 **** 0.06
6150 H 114.94640574584083 24.398363938633196 44.20848363669592 H 0.0 **** 0.06
6151 C 65.28654314345309 89.23993872682206 72.52441774665925 C 0.0 **** -0.24
6152 H 65.75304698189021 88.39751300961689 72.01469176301063 H 0.0 **** 0.06
6153 H 65.99993571807256 90.06121106004133 72.59357227517685 H 0.0 **** 0.06
6154 H 64.98269380379594 88.93600108629096 73.52575285649766 H 0.0 **** 0.06
6155 H 64.41169991410865 89.56525214289331 71.96178283948421 H 0.0 **** 0.06
6156 C 85.9935674967591 88.61188258316537 22.624980168752472 C 0.0 **** -0.24
6157 H 85.75976062574401 88.98610750487688 21.628495554823473 H 0.0 **** 0.06
6158 H 86.96662010084715 88.99269081424217 22.93719378854118 H 0.0 **** 0.06
6159 H 86.01709073162104 87.52223233053041 22.607414748144095 H 0.0 **** 0.06
6160 H 85.22982688367803 88.94750967436283 23.326627013185146 H 0.0 **** 0.06
6161 C 1.809097968689258 115.6881892991255 33.715805451063545 C 0.0 **** -0.24
6162 H 2.694080049878167 116.2553023223119 33.42630395098104 H 0.0 **** 0.06
6163 H 0.9235080144469521 116.31136922447294 33.595183252280776 H 0.0 **** 0.06
6164 H 1.8996594941486933 115.3812593322562 34.75817256830135 H 0.0 **** 0.06
6165 H 1.7219429240001602 114.80468289896595 33.08394632538892 H 0.0 **** 0.06
6166 C 41.492344291771865 23.91256734394196 66.35891630488481 C 0.0 **** -0.24
6167 H 42.07545563984704 24.400681206623382 65.57822267274565 H 0.0 **** 0.06
6168 H 40.8826367549165 23.12323254212382 65.91705778232358 H 0.0 **** 0.06
6169 H 40.845978551900394 24.644816529180382 66.8411993424107 H 0.0 **** 0.06
6170 H 42.16586206525722 23.479535311112446 67.09836313282727 H 0.0 **** 0.06
6171 C 41.54513924894861 58.37434376035678 99.86705967140296 C 0.0 **** -0.24
6172 H 42.22550305644383 58.353924736438884 99.01613683938635 H 0.0 **** 0.06
6173 H 40.52132253541022 58.24692822795453 99.5168638479752 H 0.0 **** 0.06
6174 H 41.63809983487658 59.33122916113804 100.38245400171645 H 0.0 **** 0.06
6175 H 41.79855777166134 57.56660353383103 100.55409559911519 H 0.0 **** 0.06
6176 C 113.81629850120119 48.8705967428364 26.994288665768387 C 0.0 **** -0.24
6177 H 113.47802276537774 47.83508894518231 26.947323489931534 H 0.0 **** 0.06
6178 H 114.70335543660717 48.935377979356815 27.624420350879696 H 0.0 **** 0.06
6179 H 113.02516369969801 49.491291606944 27.41434001626201 H 0.0 **** 0.06
6180 H 114.05664962027974 49.21931521630127 25.989263593200114 H 0.0 **** 0.06
6181 C 94.41424821446319 104.53693376797946 43.15073070370317 C 0.0 **** -0.24
6182 H 95.33564067509894 104.18728765544063 42.684931295887566 H 0.0 **** 0.06
6183 H 93.82486472286524 103.67905909216853 43.47764936895828 H 0.0 **** 0.06
6184 H 93.84088997157846 105.11824285576384 42.429688724146324 H 0.0 **** 0.06
6185 H 94.65606570478553 105.16096872929688 44.010860461777426 H 0.0 **** 0.06
6186 C 12.344662084407062 9.040522291951177 17.197085575940235 C 0.0 **** -0.24
6187 H 11.314823191334625 8.70269191342588 17.31532294942329 H 0.0 **** 0.06
6188 H 12.99938996098615 8.176476357400134 17.079937661176757 H 0.0 **** 0.06
6189 H 12.644097359485215 9.607553195016237 18.078624591623083 H 0.0 **** 0.06
6190 H 12.41873073053894 9.675271271347825 16.313818261594534 H 0.0 **** 0.06
6191 C 94.92241179107276 96.54398211295619 15.232630160624154 C 0.0 **** -0.24
6192 H 95.21708066451401 97.11911521595194 16.110792310411966 H 0.0 **** 0.06
6193 H 93.93407179602349 96.11433313864102 15.396466591079616 H 0.0 **** 0.06
6194 H 95.64347032827652 95.74422562258584 15.063912377255377 H 0.0 **** 0.06
6195 H 94.89534086713127 97.19929957030854 14.362143665066014 H 0.0 **** 0.06
6196 C 63.696968378993404 47.87812831672639 60.25948155831399 C 0.0 **** -0.24
6197 H 63.60652853901604 46.811209458384894 60.45953467378446 H 0.0 **** 0.06
6198 H 63.40187343878358 48.44015101303335 61.14625497261909 H 0.0 **** 0.06
6199 H 63.04801226815505 48.14830113814355 59.426135174513476 H 0.0 **** 0.06
6200 H 64.7300521604806 48.11381924356825 60.005711601658234 H 0.0 **** 0.06
6201 C 94.74877497046391 109.54580409624641 92.9170709006029 C 0.0 **** -0.24
6202 H 93.83213031645704 109.7043254512866 93.48380013405247 H 0.0 **** 0.06
6203 H 94.79988491380391 108.50652802971962 92.5922007825335 H 0.0 **** 0.06
6204 H 95.60841420443666 109.77208099424007 93.54812456269407 H 0.0 **** 0.06
6205 H 94.75501902179792 110.20011067840417 92.04551800888936 H 0.0 **** 0.06
6206 C 38.410892953583584 82.54228663860238 74.71251677780893 C 0.0 **** -0.24
6207 H 37.6491245816739 82.88226540372659 75.41403864893361 H 0.0 **** 0.06
6208 H 38.007755731658165 81.73295632695692 74.10292557062388 H 0.0 **** 0.06
6209 H 39.27953401589039 82.18407020267205 75.26566529798635 H 0.0 **** 0.06
6210 H 38.70678115789477 83.37092092440804 74.06828699860506 H 0.0 **** 0.06
6211 C 44.58278668441625 100.22724832938437 18.479199295356864 C 0.0 **** -0.24
6212 H 45.40896969541609 100.85448783216094 18.81552183475719 H 0.0 **** 0.06
6213 H 44.25388480171088 100.55785818419815 17.493883486937506 H 0.0 **** 0.06
6214 H 43.755388599719936 100.3089437813714 19.184974677023206 H 0.0 **** 0.06
6215 H 44.912690448360166 99.1905902198535 18.4240364841952 H 0.0 **** 0.06
6216 C 76.33524941899037 111.63356728432039 75.35016967453718 C 0.0 **** -0.24
6217 H 77.21480381949476 110.99243332229335 75.30076525210622 H 0.0 **** 0.06
6218 H 75.44602340696684 111.04852393613166 75.11381405766457 H 0.0 **** 0.06
6219 H 76.43698064429344 112.44682184602127 74.63226976959993 H 0.0 **** 0.06
6220 H 76.24272945162801 112.0451768854386 76.35526626276486 H 0.0 **** 0.06
6221 C 8.713424882384885 13.941005411730643 111.4787100699798 C 0.0 **** -0.24
6222 H 8.876453111846445 13.729372590901264 110.42245922911097 H 0.0 **** 0.06
6223 H 7.762016100729568 14.457441511077889 111.6030064735569 H 0.0 **** 0.06
6224 H 9.520851750534405 14.572130528531886 111.85077797662699 H 0.0 **** 0.06
6225 H 8.696430927975229 13.00593902268237 112.03880883065142 H 0.0 **** 0.06
6226 C 68.04864396907884 52.95510438932092 6.000854623649843 C 0.0 **** -0.24
6227 H 67.27580537171417 53.39383098113618 5.370235882612304 H 0.0 **** 0.06
6228 H 67.85728722498293 51.88900917417152 6.121474362583955 H 0.0 **** 0.06
6229 H 68.03881450768847 53.43900969240138 6.977375273361737 H 0.0 **** 0.06
6230 H 69.02336400857487 53.09935858633438 5.533388903119608 H 0.0 **** 0.06
6231 C 15.255412411836346 55.07176629987874 78.95818961328187 C 0.0 **** -0.24
6232 H 15.48776738120253 55.56298803968454 78.01344048802544 H 0.0 **** 0.06
6233 H 14.805719270920036 54.09916772298812 78.76067103382046 H 0.0 **** 0.06
6234 H 14.556432448822761 55.68729729839761 79.52553097873611 H 0.0 **** 0.06
6235 H 16.172261647801434 54.938921214839105 79.533182013261 H 0.0 **** 0.06
6236 C 91.53886400656444 109.10326425513257 27.745843193567595 C 0.0 **** -0.24
6237 H 91.93201499165282 109.9522155364152 27.187044887230712 H 0.0 **** 0.06
6238 H 92.23486897629809 108.26680827509358 27.67216748725957 H 0.0 **** 0.06
6239 H 90.57342138545476 108.81133795088385 27.331571327597203 H 0.0 **** 0.06
6240 H 91.41515067285226 109.3826952581375 28.79258907218272 H 0.0 **** 0.06
6241 C 26.169430794758 47.16419427643268 66.1724678541402 C 0.0 **** -0.24
6242 H 26.414874662159093 47.03406736374285 67.22593773246629 H 0.0 **** 0.06
6243 H 27.086968638479163 47.29690790383518 65.59960580496653 H 0.0 **** 0.06
6244 H 25.535083921729694 48.043405716262555 66.05360270163364 H 0.0 **** 0.06
6245 H 25.63886137929154 46.28243376873252 65.8118460153121 H 0.0 **** 0.06
6246 C 90.64308666177925 37.893314687373675 84.87450997080316 C 0.0 **** -0.24
6247 H 89.58282576175145 38.14676577779028 84.85804927344924 H 0.0 **** 0.06
6248 H 91.16702710079636 38.56474313241233 85.55463040264138 H 0.0 **** 0.06
6249 H 91.05708483393991 37.99548630988181 83.87120989277022 H 0.0 **** 0.06
6250 H 90.76428267176752 36.86434111808478 85.21396027506094 H 0.0 **** 0.06
6251 C 92.48332516331791 54.30429524776886 102.89166645227321 C 0.0 **** -0.24
6252 H 91.86204020237186 55.19394678848204 102.78431777511094 H 0.0 **** 0.06
6253 H 93.16062548506254 54.434529972884604 103.73536113129263 H 0.0 **** 0.06
6254 H 93.06149402363815 54.15430181407632 101.9798055515223 H 0.0 **** 0.06
6255 H 91.84755687786932 53.43633835600389 103.0652465530644 H 0.0 **** 0.06
6256 C 24.12345307168148 110.22984649558748 74.9610406029073 C 0.0 **** -0.24
6257 H 24.195221375161765 109.19240137475623 74.63640632609327 H 0.0 **** 0.06
6258 H 23.414063240275084 110.76160707256281 74.32702695728142 H 0.0 **** 0.06
6259 H 25.10218441899673 110.7026148463799 74.88777727023296 H 0.0 **** 0.06
6260 H 23.780373272424058 110.26295677127663 75.99596553525402 H 0.0 **** 0.06
6261 C 30.916023017382145 115.53863394148503 2.1117517000066783 C 0.0 **** -0.24
6262 H 30.991816538895847 116.6084203730538 1.9180228554214125 H 0.0 **** 0.06
6263 H 30.488945722274707 115.04079827528903 1.2410708170224183 H 0.0 **** 0.06
6264 H 30.273966435845693 115.37176596531728 2.977748864269273 H 0.0 **** 0.06
6265 H 31.908305102255667 115.13476941430689 2.312007153128647 H 0.0 **** 0.06
6266 C 13.483744998177297 77.31649692977489 102.81010507341935 C 0.0 **** -0.24
6267 H 13.747384324174348 76.7106507508656 101.94282582022824 H 0.0 **** 0.06
6268 H 12.618704312041082 76.8785424270564 103.30910214313681 H 0.0 **** 0.06
6269 H 13.24361201727842 78.32896534172346 102.48530293526208 H 0.0 **** 0.06
6270 H 14.326081639947095 77.34649662163031 103.50158289755895 H 0.0 **** 0.06
6271 C 3.4133807585071168 19.77832762275537 101.36776136207345 C 0.0 **** -0.24
6272 H 4.493423291770341 19.665183524638678 101.45938051911833 H 0.0 **** 0.06
6273 H 3.1851821231100246 20.403930189256755 100.50430585236933 H 0.0 **** 0.06
6274 H 3.0187765338115753 20.244757478044875 102.26969715446643 H 0.0 **** 0.06
6275 H 2.9558299161561763 18.79769636776001 101.23629603491418 H 0.0 **** 0.06
6276 C 115.35553350160842 59.317201312470445 106.1130416350426 C 0.0 **** -0.24
6277 H 115.74350361954691 59.6490502984895 107.07613041436679 H 0.0 **** 0.06
6278 H 114.2711897804653 59.42489768727046 106.10242533361094 H 0.0 **** 0.06
6279 H 115.61783735548033 58.270260511744254 105.95764132835899 H 0.0 **** 0.06
6280 H 115.78929692435906 59.9225058517697 105.31832209370128 H 0.0 **** 0.06
6281 C 40.09026968721349 101.35090633994116 49.96829624168984 C 0.0 **** -0.24
6282 H 39.073936283921626 101.03381507405851 49.73458681425626 H 0.0 **** 0.06
6283 H 40.065495858640475 102.0833539217117 50.77618512436561 H 0.0 **** 0.06
6284 H 40.543094190931185 101.79977680757676 49.0844377656517 H 0.0 **** 0.06
6285 H 40.67735818988581 100.48664463598334 50.27986547157127 H 0.0 **** 0.06
6286 C 58.77544294491594 93.72488483358507 5.4924083583021766 C 0.0 **** -0.24
6287 H 59.71981705959553 93.68755188225714 4.9486608234974145 H 0.0 **** 0.06
6288 H 58.20192134917863 92.82063158024272 5.287624052482123 H 0.0 **** 0.06
6289 H 58.20689367354248 94.59773416562427 5.171822470277958 H 0.0 **** 0.06
6290 H 58.9755199169191 93.79391323774962 6.5620259922691115 H 0.0 **** 0.06
6291 C 102.64249060472919 22.458432090726802 18.39194227822395 C 0.0 **** -0.24
6292 H 102.1161041466972 22.10000116576913 19.276494773265426 H 0.0 **** 0.06
6293 H 102.72701163482441 21.647795018376115 17.666986841570804 H 0.0 **** 0.06
6294 H 103.63834381672669 22.797488096660288 18.675792433853104 H 0.0 **** 0.06
6295 H 102.08915071043428 23.286184754378723 17.949185004974282 H 0.0 **** 0.06
6296 C 35.997894510197796 34.88597274303504 60.68758076495948 C 0.0 **** -0.24
6297 H 35.63357151483643 34.789381632817594 61.7101855020681 H 0.0 **** 0.06
6298 H 36.91618833112011 34.31025419818485 60.57401958416216 H 0.0 **** 0.06
6299 H 36.19750138380061 35.935478047639776 60.47124476259336 H 0.0 **** 0.06
6300 H 35.2436247196099 34.50976955507031 59.99560542902327 H 0.0 **** 0.06
6301 C 13.209915043906449 42.972992254362225 52.75282896423161 C 0.0 **** -0.24
6302 H 12.132143825822936 43.130302031792496 52.74843689799688 H 0.0 **** 0.06
6303 H 13.67531126200737 43.622747067900605 52.01164234920254 H 0.0 **** 0.06
6304 H 13.426775555767335 41.93151346362458 52.511878563903394 H 0.0 **** 0.06
6305 H 13.606985954080528 43.20694509535423 53.741192450262815 H 0.0 **** 0.06
6306 C 9.541704642312794 10.476417048769108 40.70921661412626 C 0.0 **** -0.24
6307 H 9.382991200334345 10.03206587874034 39.725864326580506 H 0.0 **** 0.06
6308 H 10.58299361981014 10.344061236479803 41.002645902028945 H 0.0 **** 0.06
6309 H 8.89333942415253 9.989143089241267 41.43633702798621 H 0.0 **** 0.06
6310 H 9.307438860899055 11.540603553717105 40.66902667934848 H 0.0 **** 0.06
6311 C 31.889517750940286 61.311166074609545 25.81619889972393 C 0.0 **** -0.24
6312 H 32.03046028621907 61.539723646707955 24.75975287809777 H 0.0 **** 0.06
6313 H 32.79819521767354 61.55886765007425 26.364358285772838 H 0.0 **** 0.06
6314 H 31.67241464404259 60.24937555607666 25.931653116683705 H 0.0 **** 0.06
6315 H 31.057390567491296 61.896963422484234 26.20590434700705 H 0.0 **** 0.06
6316 C 83.73031274815304 102.41545750174771 15.680737595597662 C 0.0 **** -0.24
6317 H 82.69493589690927 102.71991618014164 15.834257146891758 H 0.0 **** 0.06
6318 H 84.31127202105495 102.63666909276009 16.576632882305773 H 0.0 **** 0.06
6319 H 84.14738881278805 102.96149028985593 14.833399164057624 H 0.0 **** 0.06
6320 H 83.7679282711764 101.34536018543997 15.477129262772735 H 0.0 **** 0.06
6321 C 15.21750470805901 6.256230442154802 62.834135235492965 C 0.0 **** -0.24
6322 H 14.69177870402649 6.061989361685752 61.899272612158654 H 0.0 **** 0.06
6323 H 14.519416380963463 6.171613404121688 63.66741144439118 H 0.0 **** 0.06
6324 H 15.637073748115341 7.26244602446911 62.811760513527986 H 0.0 **** 0.06
6325 H 16.020924196551476 5.5294612255015 62.95610330900206 H 0.0 **** 0.06
6326 C 106.76580605902454 89.66279077248947 46.47791690038082 C 0.0 **** -0.24
6327 H 105.79438351702197 89.86465216004737 46.92987133574675 H 0.0 **** 0.06
6328 H 107.36259643790974 90.57576684616417 46.476661227949336 H 0.0 **** 0.06
6329 H 106.62452463187971 89.31951194103905 45.452796522685276 H 0.0 **** 0.06
6330 H 107.28027636636345 88.89238964456761 47.05108256603556 H 0.0 **** 0.06
6331 C 73.07581619558084 11.14435928385744 27.406815275465334 C 0.0 **** -0.24
6332 H 72.94642992412325 10.456201232069304 28.241599193270915 H 0.0 **** 0.06
6333 H 73.04406972456444 12.170072019120326 27.77348552041353 H 0.0 **** 0.06
6334 H 72.27488487258887 10.991982025461155 26.683380593468343 H 0.0 **** 0.06
6335 H 74.03753896893897 10.95824188328524 26.928791037604768 H 0.0 **** 0.06
6336 C 44.45524823743585 29.121379555843916 90.47579577690118 C 0.0 **** -0.24
6337 H 44.970102703960066 28.25902841270652 90.05103113866426 H 0.0 **** 0.06
6338 H 45.08385323798305 30.00566451481682 90.37123758735743 H 0.0 **** 0.06
6339 H 44.2547954851012 28.94033743809264 91.53229000720535 H 0.0 **** 0.06
6340 H 43.51495145452185 29.27791121900089 89.94875853209192 H 0.0 **** 0.06
6341 C 2.2320872490855095 87.70405404626662 115.45806213460375 C 0.0 **** -0.24
6342 H 2.0454928001148005 86.71497779984986 115.87652629095193 H 0.0 **** 0.06
6343 H 2.996322022796221 87.63165217717736 114.68331842537276 H 0.0 **** 0.06
6344 H 2.5762091592352476 88.37281609310347 116.24652008895876 H 0.0 **** 0.06
6345 H 1.3112260437242753 88.09468212915174 115.02497334731976 H 0.0 **** 0.06
6346 C 76.13687516017399 28.53878754903633 40.89720234925571 C 0.0 **** -0.24
6347 H 75.56137743820534 29.25095177192844 41.489332483969974 H 0.0 **** 0.06
6348 H 75.81459751665659 28.58774253889436 39.85695713837009 H 0.0 **** 0.06
6349 H 75.97486778870996 27.532153642945957 41.28201180643441 H 0.0 **** 0.06
6350 H 77.19656702883708 28.78666482539046 40.96206051433563 H 0.0 **** 0.06
6351 C 49.980888365222604 32.65144655066285 26.59342923597282 C 0.0 **** -0.24
6352 H 49.11629391158874 33.28854389070047 26.779794379735847 H 0.0 **** 0.06
6353 H 50.88647994728518 33.16273777284626 26.921471588382076 H 0.0 **** 0.06
6354 H 50.04973833536665 32.43581375139923 25.527038242900943 H 0.0 **** 0.06
6355 H 49.86937874613538 31.718923183571285 27.146500043843588 H 0.0 **** 0.06
6356 C 108.08022306235999 75.18865544786738 8.936949416427183 C 0.0 **** -0.24
6357 H 108.19577343534593 74.54701406119202 9.810710264548788 H 0.0 **** 0.06
6358 H 107.21879357260697 75.84152669272478 9.077220293112418 H 0.0 **** 0.06
6359 H 107.9293110592173 74.57137281670964 8.050695874608635 H 0.0 **** 0.06
6360 H 108.9788169298228 75.79333838364698 8.810106106953867 H 0.0 **** 0.06
6361 C 63.130748457419074 22.900868777388496 60.85465173059279 C 0.0 **** -0.24
6362 H 62.933781286735694 22.25934310920985 61.7140016863369 H 0.0 **** 0.06
6363 H 64.13298923061457 22.700302077737547 60.47577048946616 H 0.0 **** 0.06
6364 H 63.05854237976904 23.94522466585221 61.157347256571626 H 0.0 **** 0.06
6365 H 62.39863231816817 22.696951438843428 60.073802714282394 H 0.0 **** 0.06
6366 C 32.55289829466133 29.59884735730833 38.67413287189066 C 0.0 **** -0.24
6367 H 32.96078135041887 28.607611555813264 38.87533582053279 H 0.0 **** 0.06
6368 H 31.635996478217123 29.736131868594043 39.24738288716974 H 0.0 **** 0.06
6369 H 32.33580582017473 29.693607537097023 37.61027907173977 H 0.0 **** 0.06
6370 H 33.28096633301044 30.356925770574435 38.96551697263421 H 0.0 **** 0.06
6371 C 81.83148935387675 108.215932470233 48.824922180228924 C 0.0 **** -0.24
6372 H 82.86128063322008 108.35615768190745 49.15224819218996 H 0.0 **** 0.06
6373 H 81.20648945395448 107.9731142542559 49.68467099833562 H 0.0 **** 0.06
6374 H 81.78805563214186 107.40101777387453 48.10153558272147 H 0.0 **** 0.06
6375 H 81.46990019123388 109.13317369524113 48.36029829119134 H 0.0 **** 0.06
6376 C 12.122738236786375 84.12292339661585 41.5233054374514 C 0.0 **** -0.24
6377 H 11.510490124681553 83.8845162685962 40.65302737863905 H 0.0 **** 0.06
6378 H 12.17749052456135 85.20517118274117 41.64092971228354 H 0.0 **** 0.06
6379 H 13.125070456875775 83.72061911853163 41.38314184610849 H 0.0 **** 0.06
6380 H 11.67500129737752 83.6823086921219 42.41446810944572 H 0.0 **** 0.06
6381 C 90.22177964456579 20.543539056959837 25.81050212409579 C 0.0 **** -0.24
6382 H 90.34290200779125 21.556657490244362 25.427100290612117 H 0.0 **** 0.06
6383 H 89.99164734036421 20.58360007452805 26.875418468493365 H 0.0 **** 0.06
6384 H 91.14578145016729 19.98498214769874 25.6601312091111 H 0.0 **** 0.06
6385 H 89.40754883259949 20.049318340832514 25.28048077986307 H 0.0 **** 0.06
6386 C 64.427602592124 97.4602604623795 1.0565005117906026 C 0.0 **** -0.24
6387 H 63.75495647840387 96.60576258492961 1.1243907729881926 H 0.0 **** 0.06
6388 H 64.80360403580522 97.54623404665216 0.03654067569834751 H 0.0 **** 0.06
6389 H 65.26376311694406 97.31920697228904 1.7415728144222271 H 0.0 **** 0.06
6390 H 63.88852448450632 98.3693598676079 1.32425909130734 H 0.0 **** 0.06
6391 C 70.60777957761394 56.661695062034994 26.30902139626545 C 0.0 **** -0.24
6392 H 69.78715224052365 56.21520966850244 26.86991539700071 H 0.0 **** 0.06
6393 H 71.14813862492576 57.360267413523445 26.949871979824195 H 0.0 **** 0.06
6394 H 70.21027053819199 57.19435173137083 25.444986674089108 H 0.0 **** 0.06
6395 H 71.28642564356284 55.87831373482655 25.971935718039987 H 0.0 **** 0.06
6396 C 106.48917721943963 23.144252558652624 115.24087912956398 C 0.0 **** -0.24
6397 H 107.17708190638683 23.875585910520385 115.66465760765914 H 0.0 **** 0.06
6398 H 106.80128132183637 22.141245893622795 115.53110350522834 H 0.0 **** 0.06
6399 H 106.49613294395175 23.226472280127325 114.15394946469723 H 0.0 **** 0.06
6400 H 105.48228208794916 23.333900246805797 115.61282738586354 H 0.0 **** 0.06
6401 C 53.11841111369466 104.8536780688868 84.38948220249662 C 0.0 **** -0.24
6402 H 53.88945661467443 105.04415196915636 85.13634906562572 H 0.0 **** 0.06
6403 H 52.425389550140295 104.10133336449557 84.76691451370243 H 0.0 **** 0.06
6404 H 53.58252742919242 104.49379492081624 83.47093293826038 H 0.0 **** 0.06
6405 H 52.57645560585425 105.77699379786753 84.18445816642469 H 0.0 **** 0.06
6406 C 1.0901350589751218 67.38101797474626 86.85879635315098 C 0.0 **** -0.24
6407 H 0.7541495906227169 66.6072492869267 87.54925877108931 H 0.0 **** 0.06
6408 H 0.23397322291056355 67.97257388798134 86.53335801909395 H 0.0 **** 0.06
6409 H 1.5616405843690728 66.91623161541219 85.99392721058958 H 0.0 **** 0.06
6410 H 1.8088418716392738 68.02864491974623 87.3610626361202 H 0.0 **** 0.06
6411 C 61.16675884484323 78.46766496072672 53.01665084798563 C 0.0 **** -0.24
6412 H 61.38315996581031 77.40886281076297 52.872473356813884 H 0.0 **** 0.06
6413 H 60.93782997303924 78.65205524409703 54.066358597839184 H 0.0 **** 0.06
6414 H 60.3104687334685 78.74970924834275 52.40296453359631 H 0.0 **** 0.06
6415 H 62.03391866303093 79.05849111650241 52.722838295990606 H 0.0 **** 0.06
6416 C 93.0352309789006 104.46165823606975 68.90927416255391 C 0.0 **** -0.24
6417 H 93.45210519145992 103.47731185807791 69.12299283264059 H 0.0 **** 0.06
6418 H 93.25381975220397 104.73177268114978 67.87590940781274 H 0.0 **** 0.06
6419 H 93.47900062367098 105.19785134586465 69.5793202420005 H 0.0 **** 0.06
6420 H 91.95536436870628 104.43846405993276 69.05915326716996 H 0.0 **** 0.06
6421 C 73.52447323846138 0.6409454099047309 69.25972417357886 C 0.0 **** -0.24
6422 H 72.8124452441812 0.16730709248386688 69.93578367478705 H 0.0 **** 0.06
6423 H 73.9554906670026 1.5181990831210044 69.7420720956913 H 0.0 **** 0.06
6424 H 73.01167714659739 0.944273644355377 68.34637880349999 H 0.0 **** 0.06
6425 H 74.31686396926284 -0.06571363507944739 69.01327849729017 H 0.0 **** 0.06
6426 C 18.408003375264087 45.74108474996287 4.2838713038319725 C 0.0 **** -0.24
6427 H 19.240842953891164 45.75329638627329 4.986578665383547 H 0.0 **** 0.06
6428 H 18.27443683704432 46.73798176887055 3.861140898989788 H 0.0 **** 0.06
6429 H 17.498657951842684 45.44244174766678 4.804989128398802 H 0.0 **** 0.06
6430 H 18.61838267531906 45.03190234554423 3.4832856285685807 H 0.0 **** 0.06
6431 C 64.94602002711517 77.1926573458943 14.264858789609775 C 0.0 **** -0.24
6432 H 64.64142102297522 77.51113226083976 15.261049857690324 H 0.0 **** 0.06
6433 H 64.14122768197383 77.39553444682588 13.557248868669319 H 0.0 **** 0.06
6434 H 65.16114734301765 76.12438219535841 14.27490696520104 H 0.0 **** 0.06
6435 H 65.83918290251994 77.74050463609171 13.964246103868902 H 0.0 **** 0.06
6436 C 0.6228172418662297 72.29886939201 37.25705819535585 C 0.0 **** -0.24
6437 H 1.0831188406069288 72.18913197743315 36.27604719143278 H 0.0 **** 0.06
6438 H -0.08065038891371046 73.13159669166276 37.23725605924551 H 0.0 **** 0.06
6439 H 1.3954190820595187 72.49382030713566 38.001325038631194 H 0.0 **** 0.06
6440 H 0.09341079506759797 71.38225059563464 37.51472324784257 H 0.0 **** 0.06
6441 C 64.96514751492646 30.07400551412863 112.99006456274749 C 0.0 **** -0.24
6442 H 63.92658487158883 30.029282969680054 113.3185476024701 H 0.0 **** 0.06
6443 H 65.59058025375168 30.42111048173878 113.81378156612361 H 0.0 **** 0.06
6444 H 65.05147600828644 30.764590949993405 112.15090025999682 H 0.0 **** 0.06
6445 H 65.29033246259496 29.08120955641688 112.67974139762725 H 0.0 **** 0.06
6446 C 3.0352953339043154 10.460027258086118 99.64416227950238 C 0.0 **** -0.24
6447 H 4.056621347582819 10.266409037865522 99.31710008033869 H 0.0 **** 0.06
6448 H 3.0498667396983024 10.88987117400588 100.64611561220045 H 0.0 **** 0.06
6449 H 2.4748281999109167 9.524175706397113 99.65813134186857 H 0.0 **** 0.06
6450 H 2.5591028432826306 11.157621746455504 98.95643915443696 H 0.0 **** 0.06
6451 C 62.83180286546522 15.426696401776226 109.40351654175734 C 0.0 **** -0.24
6452 H 63.29065895903048 15.092105089902532 108.47338737477068 H 0.0 **** 0.06
6453 H 62.62387374054077 14.564349752715628 110.03649383819953 H 0.0 **** 0.06
6454 H 61.9014593910328 15.94907428154741 109.18225225837449 H 0.0 **** 0.06
6455 H 63.51345504514006 16.102200858909683 109.92226474611275 H 0.0 **** 0.06
6456 C 80.89140233852135 47.94840017958734 22.301374558998052 C 0.0 **** -0.24
6457 H 80.0999859105334 47.206203956191956 22.199421979580737 H 0.0 **** 0.06
6458 H 80.4841134432022 48.85382071304582 22.75168110684496 H 0.0 **** 0.06
6459 H 81.29854029253846 48.181430973634065 21.317203374134895 H 0.0 **** 0.06
6460 H 81.68298507311488 47.54980340654038 22.936472962752152 H 0.0 **** 0.06
6461 C 54.277968657390204 8.510171140061274 35.33538721071463 C 0.0 **** -0.24
6462 H 54.507519044776586 9.569322753573502 35.2183144170948 H 0.0 **** 0.06
6463 H 53.50004598229958 8.226999862599754 34.626552338595474 H 0.0 **** 0.06
6464 H 53.92921574628923 8.323493389227139 36.35056025942359 H 0.0 **** 0.06
6465 H 55.17553441758713 7.9212927387639525 35.14533060683678 H 0.0 **** 0.06
6466 C 82.72949468067418 38.71247835885433 21.410124690194067 C 0.0 **** -0.24
6467 H 81.65431832867702 38.56683404618522 21.307129133891834 H 0.0 **** 0.06
6468 H 83.07485458857659 39.41473245322237 20.650483752710898 H 0.0 **** 0.06
6469 H 83.23872415206486 37.758180525399155 21.281818605569697 H 0.0 **** 0.06
6470 H 82.9482627003593 39.11171694842299 22.400531000406318 H 0.0 **** 0.06
6471 C 99.5101238047697 15.869444580946517 96.44158005519023 C 0.0 **** -0.24
6472 H 99.10967598209123 16.8264242982375 96.10560391030924 H 0.0 **** 0.06
6473 H 100.20081932967474 15.481612367663125 95.69213527441724 H 0.0 **** 0.06
6474 H 98.69212627932734 15.163522694462792 96.58214620198004 H 0.0 **** 0.06
6475 H 100.03742506301705 16.00839718753978 97.38540795999387 H 0.0 **** 0.06
6476 C 21.711125682673895 19.22257232943477 46.44774968939937 C 0.0 **** -0.24
6477 H 21.852432883667205 19.852808937210284 47.325929433104285 H 0.0 **** 0.06
6478 H 20.714778830779835 18.78113398574328 46.473628283760036 H 0.0 **** 0.06
6479 H 22.460572722977616 18.430675193415226 46.446121166369345 H 0.0 **** 0.06
6480 H 21.818267047062704 19.826296185577377 45.54577914228118 H 0.0 **** 0.06
6481 C 100.38487849535386 31.77588697060054 109.55515330809534 C 0.0 **** -0.24
6482 H 99.66962275932411 32.251545849330284 110.22665048168643 H 0.0 **** 0.06
6483 H 100.51435707091878 32.3936756162621 108.66666581419052 H 0.0 **** 0.06
6484 H 100.0130137600168 30.793637082496502 109.26528907406659 H 0.0 **** 0.06
6485 H 101.34303771985276 31.666104168355048 110.0646023040757 H 0.0 **** 0.06
6486 C 66.27330058916391 109.41715766141948 65.24107149702041 C 0.0 **** -0.24
6487 H 67.07315382101831 108.7026387563761 65.04683944057359 H 0.0 **** 0.06
6488 H 65.3080674200749 108.93105941006122 65.09029311270666 H 0.0 **** 0.06
6489 H 66.36584065017189 110.26186024243822 64.55911960253894 H 0.0 **** 0.06
6490 H 66.34417834443275 109.77064717369662 66.27010021711271 H 0.0 **** 0.06
6491 C 70.50961390536423 55.52975290835124 107.27152143704592 C 0.0 **** -0.24
6492 H 70.08891778292656 56.49846144970553 107.00227419806828 H 0.0 **** 0.06
6493 H 70.31358404213029 54.81422390788944 106.47161880630853 H 0.0 **** 0.06
6494 H 70.04950514046249 55.177241240998285 108.19477493295031 H 0.0 **** 0.06
6495 H 71.58560890941595 55.62873484905987 107.41537514592375 H 0.0 **** 0.06
6496 C 7.782780351031988 28.695369894414533 84.7434941361771 C 0.0 **** -0.24
6497 H 6.7283629415478 28.44889951896222 84.86154388181652 H 0.0 **** 0.06
6498 H 8.099103511282863 29.342520168739476 85.56156854309842 H 0.0 **** 0.06
6499 H 7.931526374186035 29.2107221253167 83.79474957766399 H 0.0 **** 0.06
6500 H 8.373068055473823 27.77952720534993 84.7550745390775 H 0.0 **** 0.06
6501 C 86.22545170966926 23.021215328147207 13.436785169788607 C 0.0 **** -0.24
6502 H 86.91019502946722 22.439279145126875 12.820387260138148 H 0.0 **** 0.06
6503 H 85.60115658114837 23.645310880864884 12.797000116833601 H 0.0 **** 0.06
6504 H 86.79749592684033 23.655111100775173 14.114831006804138 H 0.0 **** 0.06
6505 H 85.59492710772908 22.346478146599566 14.015547641769729 H 0.0 **** 0.06
6506 C 97.86275429538534 89.33692302883054 46.3181496799441 C 0.0 **** -0.24
6507 H 97.69222165287493 89.78603238024283 45.339344283346406 H 0.0 **** 0.06
6508 H 96.94522419470877 89.39025721761624 46.90565681464426 H 0.0 **** 0.06
6509 H 98.65638186329676 89.87724595028106 46.832665848963586 H 0.0 **** 0.06
6510 H 98.15413472864441 88.29425782053062 46.19277327912499 H 0.0 **** 0.06
6511 C 109.19155528218565 101.34891579448964 65.96145441118244 C 0.0 **** -0.24
6512 H 109.6019244911594 102.33089453291292 66.19967174760086 H 0.0 **** 0.06
6513 H 108.88552631962992 101.32768933981814 64.91572153862091 H 0.0 **** 0.06
6514 H 108.32921535244648 101.15185889171411 66.59771766701351 H 0.0 **** 0.06
6515 H 109.95211888596896 100.58724887197195 66.13326552387309 H 0.0 **** 0.06
6516 C 83.79958734936157 12.021965307577545 107.49647001582116 C 0.0 **** -0.24
6517 H 84.20165703330974 11.873223654428926 108.49824364310888 H 0.0 **** 0.06
6518 H 83.97175014624575 11.1245730544168 106.90000642230603 H 0.0 **** 0.06
6519 H 84.29608410288081 12.870570725604367 107.02766165754878 H 0.0 **** 0.06
6520 H 82.7288298512472 12.216505979007152 107.55969877887514 H 0.0 **** 0.06
6521 C 113.57147062763872 79.04876493389148 83.77968203580002 C 0.0 **** -0.24
6522 H 113.28712306215313 80.04987510280836 84.10224271224212 H 0.0 **** 0.06
6523 H 113.04087167055776 78.31023994847646 84.38080278744053 H 0.0 **** 0.06
6524 H 114.64596109578126 78.91755665025045 83.9084305766051 H 0.0 **** 0.06
6525 H 113.31214737994003 78.91779765154891 82.72965702992815 H 0.0 **** 0.06
6526 C 51.38362975690169 7.013187626197521 89.70213616595296 C 0.0 **** -0.24
6527 H 52.231109342431616 6.389273654801656 89.41617405550377 H 0.0 **** 0.06
6528 H 51.43217763954782 7.959720255403369 89.16302236923515 H 0.0 **** 0.06
6529 H 51.41927144138987 7.2031440100219015 90.77485737655674 H 0.0 **** 0.06
6530 H 50.45497153890419 6.49947920754596 89.45320617916403 H 0.0 **** 0.06
6531 C 102.13322394958115 110.46334149913969 87.83291176211216 C 0.0 **** -0.24
6532 H 101.4932519390855 110.73285569360777 86.99254547482674 H 0.0 **** 0.06
6533 H 102.97588588691798 109.87210280283315 87.47224666878427 H 0.0 **** 0.06
6534 H 101.55967920778116 109.87794794591326 88.55190438990356 H 0.0 **** 0.06
6535 H 102.50243999438936 111.36905441638936 88.31243245107531 H 0.0 **** 0.06
6536 C 25.35513045417965 49.02916692401966 89.66946476462658 C 0.0 **** -0.24
6537 H 25.458743547090563 48.44204419654065 88.75554357999715 H 0.0 **** 0.06
6538 H 24.732336189113184 48.48666035731638 90.38056635254759 H 0.0 **** 0.06
6539 H 24.890794231356566 49.98703434504151 89.43435745593888 H 0.0 **** 0.06
6540 H 26.33968052070989 49.19941543101696 90.10412913904355 H 0.0 **** 0.06
6541 C 17.3741744690751 37.63914064291424 84.7611030124992 C 0.0 **** -0.24
6542 H 16.600139583893167 36.88000813094453 84.87662537903464 H 0.0 **** 0.06
6543 H 17.327304940179374 38.33504610302842 85.59862338937705 H 0.0 **** 0.06
6544 H 17.214399730627903 38.18121289739014 83.82841746820063 H 0.0 **** 0.06
6545 H 18.352737498297174 37.15957274313848 84.74074190189907 H 0.0 **** 0.06
6546 C 81.2155184067467 29.335814965053885 105.49998466120618 C 0.0 **** -0.24
6547 H 82.10732461340245 28.794053867937066 105.18431524792814 H 0.0 **** 0.06
6548 H 81.18031585907187 30.301586080374364 104.99580662697807 H 0.0 **** 0.06
6549 H 81.24727459697223 29.489112331694855 106.57904168457435 H 0.0 **** 0.06
6550 H 80.32864268134614 28.75683499464344 105.24076420573252 H 0.0 **** 0.06
6551 C 56.29070373362889 66.02999506930837 49.252541192498654 C 0.0 **** -0.24
6552 H 56.04043773863085 65.67716469701418 50.25235824462828 H 0.0 **** 0.06
6553 H 55.49236646550412 65.75981742629438 48.560456464397646 H 0.0 **** 0.06
6554 H 57.223562349359256 65.56894527277188 48.92824282018586 H 0.0 **** 0.06
6555 H 56.4070539306536 67.1138807942159 49.26696155207304 H 0.0 **** 0.06
6556 C 103.89138202699297 75.89868549602608 77.11934625069982 C 0.0 **** -0.24
6557 H 102.97080699827046 75.33850279358606 77.28810229861463 H 0.0 **** 0.06
6558 H 104.63333528009812 75.24692781987035 76.65683687979609 H 0.0 **** 0.06
6559 H 104.2726321174286 76.26645862298219 78.07198723844162 H 0.0 **** 0.06
6560 H 103.68630691519417 76.74217744659587 76.45921054432121 H 0.0 **** 0.06
6561 C 5.045883036209389 11.20758150110467 106.49248519959838 C 0.0 **** -0.24
6562 H 5.694447955978447 11.737995661423753 105.7945217508065 H 0.0 **** 0.06
6563 H 5.039315934813516 11.728719104238792 107.44916432835619 H 0.0 **** 0.06
6564 H 5.419545869316153 10.193499576908778 106.63379862410481 H 0.0 **** 0.06
6565 H 4.033794257409966 11.169561494252491 106.09047114983015 H 0.0 **** 0.06
6566 C 3.1983898802053545 27.123379741335185 71.9640341089245 C 0.0 **** -0.24
6567 H 3.7936651121065665 28.03713849327042 71.96543564769297 H 0.0 **** 0.06
6568 H 2.4582253534327947 27.171175707378836 72.76252991449809 H 0.0 **** 0.06
6569 H 3.8505376635822017 26.265157302047584 72.12481359815848 H 0.0 **** 0.06
6570 H 2.692085142206963 27.0213382215168 71.0040087905738 H 0.0 **** 0.06
6571 C 6.660615086500059 60.787950841735494 75.05413982740454 C 0.0 **** -0.24
6572 H 6.34382892860819 59.77433839314233 74.80649301306822 H 0.0 **** 0.06
6573 H 6.675354626324065 61.395046206741455 74.14868825632604 H 0.0 **** 0.06
6574 H 7.65814864731135 60.76013697450588 75.49104904028957 H 0.0 **** 0.06
6575 H 5.961691760082488 61.220069125256316 75.7697846311831 H 0.0 **** 0.06
6576 C 103.24563259964243 15.45460706363345 77.17657650639035 C 0.0 **** -0.24
6577 H 102.17750039092394 15.388625368280358 77.3817386666579 H 0.0 **** 0.06
6578 H 103.41616182770991 16.168022237204323 76.37051006462258 H 0.0 **** 0.06
6579 H 103.61888214121089 14.474439632877765 76.88018802917554 H 0.0 **** 0.06
6580 H 103.76770096889459 15.78645922012226 78.07390437593176 H 0.0 **** 0.06
6581 C 27.85407382557478 47.73069468736506 105.62045571407631 C 0.0 **** -0.24
6582 H 27.1698527671389 47.789815894482786 106.46699442575573 H 0.0 **** 0.06
6583 H 28.335944710971667 48.697781020775864 105.4745856912866 H 0.0 **** 0.06
6584 H 27.298600311506377 47.46025012802568 104.72282024687318 H 0.0 **** 0.06
6585 H 28.613007597478223 46.97275112767079 105.81915837858627 H 0.0 **** 0.06
6586 C 69.2404956557446 80.93090206965735 108.34042101798303 C 0.0 **** -0.24
6587 H 69.10604105117923 80.47756253068147 109.32224724802164 H 0.0 **** 0.06
6588 H 70.26374804611933 80.7643514017729 108.00068421642534 H 0.0 **** 0.06
6589 H 69.04851954938478 82.00192495841571 108.40460589403689 H 0.0 **** 0.06
6590 H 68.54428608980253 80.47903976942854 107.633101205022 H 0.0 **** 0.06
6591 C 113.89212534701599 47.34602988472375 105.73146557069259 C 0.0 **** -0.24
6592 H 114.00927114709266 46.70194125770908 104.85944245913083 H 0.0 **** 0.06
6593 H 112.9333013282617 47.140408766767436 106.20827691757046 H 0.0 **** 0.06
6594 H 113.92533232022998 48.389541241147015 105.41916624531291 H 0.0 **** 0.06
6595 H 114.69849488477452 47.15186178174213 106.4383067406176 H 0.0 **** 0.06
6596 C 72.05716943240543 85.90211350642916 95.53991151801495 C 0.0 **** -0.24
6597 H 71.50062426364184 86.7486511285111 95.13811795556353 H 0.0 **** 0.06
6598 H 72.44997792473418 85.30289314424576 94.71845549184431 H 0.0 **** 0.06
6599 H 71.39334526012252 85.29053712015377 96.15212424674121 H 0.0 **** 0.06
6600 H 72.882130233504 86.26731630617172 96.15211016305176 H 0.0 **** 0.06
6601 C 49.89711728584649 42.547636554520835 28.476148397846714 C 0.0 **** -0.24
6602 H 49.22553666647562 42.91995190645616 27.70278090194404 H 0.0 **** 0.06
6603 H 49.95570452915592 41.46084477405208 28.4131901714417 H 0.0 **** 0.06
6604 H 49.516720156491886 42.83560213209513 29.456600564094998 H 0.0 **** 0.06
6605 H 50.889165569664556 42.973968010250815 28.331614066351108 H 0.0 **** 0.06
6606 C 35.02576585816572 36.00109696995682 39.40828124357009 C 0.0 **** -0.24
6607 H 34.420349566886856 35.28914731197956 38.847642027139784 H 0.0 **** 0.06
6608 H 34.83421615781665 35.88165821248049 40.47460560513528 H 0.0 **** 0.06
6609 H 34.76657175241149 37.015290642451106 39.103916032441106 H 0.0 **** 0.06
6610 H 36.08120660347999 35.819438355270364 39.20518141399893 H 0.0 **** 0.06
6611 C 1.2936960753667393 60.60081187279786 27.80484171802499 C 0.0 **** -0.24
6612 H 0.4794018695147173 60.01027998120907 27.38432582554441 H 0.0 **** 0.06
6613 H 1.3112368296456793 60.47567501647035 28.887855424209135 H 0.0 **** 0.06
6614 H 1.142393982691388 61.652264322785186 27.56292869294333 H 0.0 **** 0.06
6615 H 2.241160773209529 60.263933950441924 27.38493049916036 H 0.0 **** 0.06
6616 C 21.40781046143684 35.5828461829945 112.61810098071871 C 0.0 **** -0.24
6617 H 21.279528918098833 34.77023760489095 113.33311615171345 H 0.0 **** 0.06
6618 H 22.337210270796476 35.43864353720562 112.06716165011193 H 0.0 **** 0.06
6619 H 21.443983205078922 36.533047198394854 113.15097818955412 H 0.0 **** 0.06
6620 H 20.56943713868054 35.58810603498881 111.92107508724679 H 0.0 **** 0.06
6621 C 84.88485615455443 92.64579527491259 82.35965364677837 C 0.0 **** -0.24
6622 H 84.74533736785068 92.65268272741918 83.44139424171328 H 0.0 **** 0.06
6623 H 85.33415615460035 91.6999647145941 82.0578563908278 H 0.0 **** 0.06
6624 H 85.54115529044888 93.4681576026486 82.07421149492542 H 0.0 **** 0.06
6625 H 83.91942292269853 92.76392823062906 81.86849503140296 H 0.0 **** 0.06
6626 C 76.5148233098026 7.856655886092199 23.578716992643677 C 0.0 **** -0.24
6627 H 75.65331993907226 7.294064965501519 23.939134778786098 H 0.0 **** 0.06
6628 H 77.42524264443941 7.286124585390496 23.7657418438381 H 0.0 **** 0.06
6629 H 76.5699342267742 8.811284896774652 24.101455708344844 H 0.0 **** 0.06
6630 H 76.41048773605763 8.034202153476855 22.50862543996351 H 0.0 **** 0.06
6631 C 16.590233999104044 29.448504956819804 88.03898720295096 C 0.0 **** -0.24
6632 H 15.785480782623154 29.761001554255387 88.70320297974862 H 0.0 **** 0.06
6633 H 17.084548579655433 30.32910432649153 87.62692593969989 H 0.0 **** 0.06
6634 H 16.17876337296974 28.84841868459924 87.22752067145282 H 0.0 **** 0.06
6635 H 17.312941296505727 28.85537846151908 88.59889045192743 H 0.0 **** 0.06
6636 C 23.70953562790987 76.86105887575656 14.525657154229123 C 0.0 **** -0.24
6637 H 22.894010022253994 76.24435860934949 14.149817773850174 H 0.0 **** 0.06
6638 H 24.040533881889043 77.54274312799308 13.741364885888459 H 0.0 **** 0.06
6639 H 24.539353625982812 76.22284458739568 14.827340928375321 H 0.0 **** 0.06
6640 H 23.363537650785606 77.43603622907258 15.384774150797597 H 0.0 **** 0.06
6641 C 13.315084684240759 1.4000807405708287 60.25627969477614 C 0.0 **** -0.24
6642 H 12.29869283590918 1.4840524398799744 59.87005698057621 H 0.0 **** 0.06
6643 H 13.924126212589215 0.8292505220946396 59.55520777073781 H 0.0 **** 0.06
6644 H 13.296393360909235 0.8925792648077078 61.22083837665295 H 0.0 **** 0.06
6645 H 13.739298723175125 2.396819580933027 60.378977331457776 H 0.0 **** 0.06
6646 C 80.58475660484936 21.786382811913427 2.729685324811385 C 0.0 **** -0.24
6647 H 80.46036609222026 21.103275938677655 3.569510017863479 H 0.0 **** 0.06
6648 H 80.76874363750119 22.793189797875698 3.1041676325862397 H 0.0 **** 0.06
6649 H 79.67800946232117 21.78474763064645 2.12306796780598 H 0.0 **** 0.06
6650 H 81.42905898332998 21.463629532171865 2.1213521016421737 H 0.0 **** 0.06
6651 C 67.71952761679538 71.11876930672081 37.279014699338575 C 0.0 **** -0.24
6652 H 67.52851078823852 71.26698296353563 38.3417610589546 H 0.0 **** 0.06
6653 H 67.37545803401719 71.99172672503519 36.72290759399311 H 0.0 **** 0.06
6654 H 67.18422718061873 70.23393168031704 36.93402282282216 H 0.0 **** 0.06
6655 H 68.78908002902074 70.9826029431979 37.11684210053579 H 0.0 **** 0.06
6656 C 58.06017307963161 57.74897619760276 16.17717368575714 C 0.0 **** -0.24
6657 H 58.64913707017395 58.54921741223882 15.728928244882212 H 0.0 **** 0.06
6658 H 57.7886950235917 58.025519739560536 17.196216333689307 H 0.0 **** 0.06
6659 H 58.64775953417124 56.83157020823262 16.19344972489793 H 0.0 **** 0.06
6660 H 57.15589469521194 57.59122512559503 15.588788780588033 H 0.0 **** 0.06
6661 C 63.58106096186219 41.569579097846095 95.38719960989502 C 0.0 **** -0.24
6662 H 64.43443423690198 40.942211898637765 95.64378484023601 H 0.0 **** 0.06
6663 H 63.929630573924356 42.573658549023435 95.14505038453467 H 0.0 **** 0.06
6664 H 62.89672948066129 41.61692478339428 96.23491325535599 H 0.0 **** 0.06
6665 H 63.064032264505784 41.146029709062375 94.52623399604954 H 0.0 **** 0.06
6666 C 73.82787817621664 78.52051290443549 79.41034503863831 C 0.0 **** -0.24
6667 H 74.42699742668259 77.70836804153105 79.0003519715376 H 0.0 **** 0.06
6668 H 72.83733528856703 78.14629384721661 79.6686402754306 H 0.0 **** 0.06
6669 H 73.73577029539808 79.31400007629921 78.66837480321836 H 0.0 **** 0.06
6670 H 74.31309645298398 78.91305314040396 80.30421749353276 H 0.0 **** 0.06
6671 C 106.8400381421826 62.613487411597916 87.90414396551002 C 0.0 **** -0.24
6672 H 107.35737987376501 63.5639895381571 87.77333188529616 H 0.0 **** 0.06
6673 H 106.68945152709591 62.14517836692336 86.93182569262137 H 0.0 **** 0.06
6674 H 105.87334016315458 62.78910055966101 88.3762939451304 H 0.0 **** 0.06
6675 H 107.44022608139909 61.95809183707014 88.53548353119372 H 0.0 **** 0.06
6676 C 19.18229544549655 36.673163852345624 35.65319377448111 C 0.0 **** -0.24
6677 H 18.39547701075182 36.7120465772166 34.90024397140988 H 0.0 **** 0.06
6678 H 18.76329448054861 36.91538654423846 36.62977347111698 H 0.0 **** 0.06
6679 H 19.960353556437127 37.39365811757625 35.40172782800728 H 0.0 **** 0.06
6680 H 19.61054826788714 35.671397677101936 35.679377300456565 H 0.0 **** 0.06
6681 C 30.067487129176477 14.141559474341449 1.3661877084505676 C 0.0 **** -0.24
6682 H 31.082845462975953 13.849700334939072 1.0987419648188954 H 0.0 **** 0.06
6683 H 30.101180471107554 14.911234257016147 2.1380031695982886 H 0.0 **** 0.06
6684 H 29.527831110787716 13.271886660419156 1.7424777461008016 H 0.0 **** 0.06
6685 H 29.557599988100172 14.53124209846439 0.4853545305319287 H 0.0 **** 0.06
6686 C 44.759692768413316 14.484303660208099 78.5591696455395 C 0.0 **** -0.24
6687 H 44.29395694651683 15.103239287984877 77.79250259390176 H 0.0 **** 0.06
6688 H 44.44817264224105 14.832011865851655 79.54445985925338 H 0.0 **** 0.06
6689 H 45.84373683516728 14.555841853712224 78.47429169451436 H 0.0 **** 0.06
6690 H 44.452257644560376 13.446874011681786 78.42530046706986 H 0.0 **** 0.06
6691 C 105.37564280986544 2.2584344103239005 49.530485507600034 C 0.0 **** -0.24
6692 H 105.98025449890582 1.8386063691290815 50.333857541661544 H 0.0 **** 0.06
6693 H 104.57872946524539 2.8690673269993 49.9552455943191 H 0.0 **** 0.06
6694 H 104.93960025835814 1.4491224121687196 48.9431537024399 H 0.0 **** 0.06
6695 H 106.00342910192288 2.875385195334843 48.88718178317237 H 0.0 **** 0.06
6696 C 52.703150343479535 19.41766529396756 74.91789685785562 C 0.0 **** -0.24
6697 H 53.553669508738864 20.09202591028975 75.02368217311042 H 0.0 **** 0.06
6698 H 51.87196366367243 19.78639996170878 75.51928111506848 H 0.0 **** 0.06
6699 H 52.98503022951502 18.42138652093081 75.2576642111776 H 0.0 **** 0.06
6700 H 52.402403714507415 19.37412976172476 73.87082249985383 H 0.0 **** 0.06
6701 C 42.92294055247487 80.03171785937303 17.18424360508759 C 0.0 **** -0.24
6702 H 42.872884436253344 79.34582237219598 18.029562058094044 H 0.0 **** 0.06
6703 H 43.63807186801154 80.82502218390658 17.401952140895776 H 0.0 **** 0.06
6704 H 41.93873091469061 80.4672588085972 17.011292645372034 H 0.0 **** 0.06
6705 H 43.241113524406785 79.48869357287742 16.294432318736533 H 0.0 **** 0.06
6706 C 111.04236104456186 112.30439290802079 68.15079856462033 C 0.0 **** -0.24
6707 H 110.41142090742724 111.67775314798064 67.51951354517651 H 0.0 **** 0.06
6708 H 110.83208019305621 113.35415388116041 67.9454319818299 H 0.0 **** 0.06
6709 H 112.09083577188824 112.094138856814 67.93713154717746 H 0.0 **** 0.06
6710 H 110.8343830577964 112.0894981473594 69.19859430232748 H 0.0 **** 0.06
6711 C 22.141470519084283 33.71908855484901 78.55222599697235 C 0.0 **** -0.24
6712 H 22.081175137250323 32.93420503664971 77.79694856534573 H 0.0 **** 0.06
6713 H 22.58821419992728 34.61124024366753 78.11346638458606 H 0.0 **** 0.06
6714 H 22.756892166284374 33.37522386386928 79.38350081255027 H 0.0 **** 0.06
6715 H 21.14073891838437 33.95243113104866 78.9135332982725 H 0.0 **** 0.06
6716 C 87.01429291275883 33.742588686099 19.966776674826008 C 0.0 **** -0.24
6717 H 86.81397829968142 34.363818132299116 20.839865787345047 H 0.0 **** 0.06
6718 H 86.07143064555754 33.478275350700414 19.486031559467108 H 0.0 **** 0.06
6719 H 87.53100541270294 32.8355483524208 20.278069937159955 H 0.0 **** 0.06
6720 H 87.63817147676474 34.29398560691425 19.26397266537225 H 0.0 **** 0.06
6721 C 9.975752624930166 64.30777693935784 38.2320736936332 C 0.0 **** -0.24
6722 H 9.428341440847646 63.37034875818239 38.33180317970607 H 0.0 **** 0.06
6723 H 10.374212411290813 64.60062782698333 39.20374737513663 H 0.0 **** 0.06
6724 H 9.30270553372361 65.08321881133077 37.866836719212586 H 0.0 **** 0.06
6725 H 10.795910295069177 64.17595764544302 37.52674427334051 H 0.0 **** 0.06
6726 C 106.05026094077401 82.63501540129542 96.81734848193236 C 0.0 **** -0.24
6727 H 105.94910969277592 83.61003366630302 97.29414966628184 H 0.0 **** 0.06
6728 H 105.12323639575794 82.07335059978834 96.93824420090453 H 0.0 **** 0.06
6729 H 106.87079200649576 82.08729244676721 97.2808815349284 H 0.0 **** 0.06
6730 H 106.25724755715615 82.77008636195637 95.75584487027439 H 0.0 **** 0.06
6731 C 56.334585262095885 54.44346020116929 16.331384625562162 C 0.0 **** -0.24
6732 H 55.87078693432821 53.59562472904296 16.835773058306387 H 0.0 **** 0.06
6733 H 55.603060463098416 54.925550519720026 15.683482701927385 H 0.0 **** 0.06
6734 H 57.17606657159021 54.09341925550667 15.73433099410795 H 0.0 **** 0.06
6735 H 56.68988931687454 55.1581240295907 17.074709100834376 H 0.0 **** 0.06
6736 C 49.10545527131819 10.46859917271567 75.43590510887549 C 0.0 **** -0.24
6737 H 49.28466833765572 11.016211839158274 74.51118648052542 H 0.0 **** 0.06
6738 H 49.664746689340745 10.93430690152266 76.24767232100484 H 0.0 **** 0.06
6739 H 49.432949386255586 9.435221137792382 75.3152855210501 H 0.0 **** 0.06
6740 H 48.04080771843718 10.486889715633936 75.66924736207645 H 0.0 **** 0.06
6741 C 97.78843946610924 23.51854816091509 6.515475333872104 C 0.0 **** -0.24
6742 H 98.77287065360204 23.725127595499032 6.9360009073417075 H 0.0 **** 0.06
6743 H 97.02021650147516 23.769336939811268 7.24794041997967 H 0.0 **** 0.06
6744 H 97.7167393202999 22.461005985219202 6.2602965316145 H 0.0 **** 0.06
6745 H 97.64410182614112 24.119702611002083 5.617565234011778 H 0.0 **** 0.06
6746 C 47.116855132305005 56.82689845616834 0.28488856309360244 C 0.0 **** -0.24
6747 H 47.385643644193124 56.03743704414764 0.9865864725167341 H 0.0 **** 0.06
6748 H 46.25717477378913 57.37648994908068 0.668394013507168 H 0.0 **** 0.06
6749 H 46.865672608915645 56.386141559396975 -0.6794496591183758 H 0.0 **** 0.06
6750 H 47.959840478256126 57.50805286312949 0.16496782169025437 H 0.0 **** 0.06
6751 C 29.032139974097717 101.2902413541494 96.19009727445221 C 0.0 **** -0.24
6752 H 28.375157447533013 100.7486718185352 95.50887043801687 H 0.0 **** 0.06
6753 H 29.908909177827653 101.6410325378061 95.64494049647395 H 0.0 **** 0.06
6754 H 29.346112584208498 100.62723150550732 96.99611506525177 H 0.0 **** 0.06
6755 H 28.498726848601784 102.14362020435041 96.60751129928754 H 0.0 **** 0.06
6756 C 84.71814541117283 69.27359168692499 112.90052748964018 C 0.0 **** -0.24
6757 H 84.59600030427794 69.20034106404141 111.81986867503599 H 0.0 **** 0.06
6758 H 84.77091845928578 70.32321986401772 113.18929077887451 H 0.0 **** 0.06
6759 H 85.6373614043498 68.768170456937 113.19678396046415 H 0.0 **** 0.06
6760 H 83.86864739976795 68.80247233840672 113.39480497373715 H 0.0 **** 0.06
6761 C 45.2170294434481 24.417140769437196 79.08985358747262 C 0.0 **** -0.24
6762 H 45.64434832796741 24.939201332074845 78.23424629239113 H 0.0 **** 0.06
6763 H 45.81125296975449 23.528649885925518 79.30740129232458 H 0.0 **** 0.06
6764 H 44.193067276591364 24.122227126972916 78.86074887244226 H 0.0 **** 0.06
6765 H 45.21982548443435 25.07764455893596 79.9574085004813 H 0.0 **** 0.06
6766 C 29.394557149340812 41.051586648916384 55.937445684161446 C 0.0 **** -0.24
6767 H 29.34750634270921 41.898454641526996 55.251330172426975 H 0.0 **** 0.06
6768 H 28.59102174416728 41.13311138379413 56.669542764162145 H 0.0 **** 0.06
6769 H 30.356256360122927 41.05233368502519 56.45068211505895 H 0.0 **** 0.06
6770 H 29.282846163794545 40.12389026478439 55.376627887481334 H 0.0 **** 0.06
6771 C 90.80952668827683 36.163647468483646 56.94873230473782 C 0.0 **** -0.24
6772 H 89.77634954937355 36.10901091461784 56.604272645192594 H 0.0 **** 0.06
6773 H 91.31770116121572 36.98561330662079 56.444658488725835 H 0.0 **** 0.06
6774 H 91.31781736055274 35.2263732414836 56.72095125747491 H 0.0 **** 0.06
6775 H 90.82413600002855 36.33252703744006 58.02571319725267 H 0.0 **** 0.06
6776 C 93.99810469964152 106.5485577857794 29.650092304484176 C 0.0 **** -0.24
6777 H 93.69851881500205 107.58488982382175 29.808830472657405 H 0.0 **** 0.06
6778 H 93.11110437025289 105.91504255306506 29.619934852439414 H 0.0 **** 0.06
6779 H 94.64542843304338 106.22937530319376 30.467341422478896 H 0.0 **** 0.06
6780 H 94.53589196528753 106.4668908917073 28.706488136704046 H 0.0 **** 0.06
6781 C 66.59723853509222 110.26695632971246 47.413159531530596 C 0.0 **** -0.24
6782 H 66.34482704698632 111.30521826775924 47.62953459110406 H 0.0 **** 0.06
6783 H 66.16166727588862 109.97967690061131 46.45563521388698 H 0.0 **** 0.06
6784 H 66.20025900453832 109.62556672320329 48.20073063554662 H 0.0 **** 0.06
6785 H 67.68094000782268 110.15900407140765 47.36758558980159 H 0.0 **** 0.06
6786 C 33.3562993670293 103.88896389305376 18.293096373052663 C 0.0 **** -0.24
6787 H 32.81981447226006 103.12656572323391 17.728127744517906 H 0.0 **** 0.06
6788 H 33.50073652333798 103.54719790061108 19.318386826045867 H 0.0 **** 0.06
6789 H 32.77874262878725 104.81351922648525 18.294890614892637 H 0.0 **** 0.06
6790 H 34.32661755781174 104.06830373802501 17.829789351835302 H 0.0 **** 0.06
6791 C 24.07285556296143 61.92372013575675 42.977589059326306 C 0.0 **** -0.24
6792 H 24.06021693280247 62.45148358772735 43.93186293398901 H 0.0 **** 0.06
6793 H 25.053216453146817 62.037990809706116 42.513223482702074 H 0.0 **** 0.06
6794 H 23.308622963719298 62.341290563894404 42.32192219418519 H 0.0 **** 0.06
6795 H 23.87006798841457 60.86609612950804 43.14591377739356 H 0.0 **** 0.06
6796 C 16.801047756679793 10.44331267269996 46.45416443083201 C 0.0 **** -0.24
6797 H 17.150727604853273 11.200619362869986 45.75299747754278 H 0.0 **** 0.06
6798 H 16.848696123912248 10.838925445753091 47.46882483369657 H 0.0 **** 0.06
6799 H 17.433824976755147 9.559452037478906 46.378073157897376 H 0.0 **** 0.06
6800 H 15.772456793682466 10.17595827461443 46.21586691463148 H 0.0 **** 0.06
6801 C 37.544445211514756 66.85640662564943 16.690163791293827 C 0.0 **** -0.24
6802 H 36.820600459586444 66.82774921010795 17.505246695261377 H 0.0 **** 0.06
6803 H 37.09838821544821 67.3488567344451 15.826188912763484 H 0.0 **** 0.06
6804 H 37.8285883953813 65.83848100756663 16.421754235512935 H 0.0 **** 0.06
6805 H 38.42844974508694 67.40820301313222 17.008146850652423 H 0.0 **** 0.06
6806 C 88.55768923319073 82.72709846150782 15.918488955938692 C 0.0 **** -0.24
6807 H 87.75499911437895 81.98918143976515 15.925948246058422 H 0.0 **** 0.06
6808 H 89.43404160037277 82.30403568975237 15.426043982357335 H 0.0 **** 0.06
6809 H 88.81105692843452 82.9977494336842 16.9432808325712 H 0.0 **** 0.06
6810 H 88.22998066416996 83.61464369317945 15.377793039228436 H 0.0 **** 0.06
6811 C 96.08582074827088 12.928814344698822 32.93432153536291 C 0.0 **** -0.24
6812 H 95.55359388922692 13.817725730513985 32.597083312241814 H 0.0 **** 0.06
6813 H 96.34690497264933 12.313480523506996 32.072435836293096 H 0.0 **** 0.06
6814 H 95.4485102152998 12.357581222808903 33.6093389871183 H 0.0 **** 0.06
6815 H 96.99489822026518 13.226204159602844 33.45654655622026 H 0.0 **** 0.06
6816 C 79.34671257413945 56.547371726324315 107.64045035754057 C 0.0 **** -0.24
6817 H 79.0654538354621 55.498472922120335 107.73050775566341 H 0.0 **** 0.06
6818 H 79.10831158887417 56.902450737958546 106.63761315836148 H 0.0 **** 0.06
6819 H 80.41678610250759 56.65273790832191 107.81845359076655 H 0.0 **** 0.06
6820 H 78.79629876971399 57.135825336896275 108.37522692537067 H 0.0 **** 0.06
6821 C 90.01276222747114 31.706607591750696 50.4338982785431 C 0.0 **** -0.24
6822 H 90.7722129632615 31.166723570647264 49.86733897725131 H 0.0 **** 0.06
6823 H 90.23617302947179 31.63699250894524 51.49856720263884 H 0.0 **** 0.06
6824 H 89.03415587591667 31.266981624865878 50.23829859933957 H 0.0 **** 0.06
6825 H 90.00731884259397 32.75314439301985 50.12968843190359 H 0.0 **** 0.06
6826 C 88.41049351339475 51.51081389114097 86.2557312703031 C 0.0 **** -0.24
6827 H 89.43153267765183 51.40817205461687 85.88775946040425 H 0.0 **** 0.06
6828 H 88.40607097497144 52.15155206356599 87.13841393137179 H 0.0 **** 0.06
6829 H 88.01817596386695 50.52759777580616 86.51818630457774 H 0.0 **** 0.06
6830 H 87.78793715008507 51.955059717150334 85.47966057485814 H 0.0 **** 0.06
6831 C 54.19432845816376 110.02852959338337 95.53208302896047 C 0.0 **** -0.24
6832 H 54.467883334732015 109.76000344377287 96.55232563506814 H 0.0 **** 0.06
6833 H 55.09499154535669 110.09661266384322 94.92077432294911 H 0.0 **** 0.06
6834 H 53.68260600200357 110.99144933446357 95.53459496897551 H 0.0 **** 0.06
6835 H 53.53202875996411 109.26692853196636 95.12107882136985 H 0.0 **** 0.06
6836 C 5.902917754196196 56.77109371291414 62.90148526194572 C 0.0 **** -0.24
6837 H 6.205755015765439 55.72420510394444 62.883586041640825 H 0.0 **** 0.06
6838 H 6.399867487257573 57.30659966271929 62.092305481473275 H 0.0 **** 0.06
6839 H 6.184014665955212 57.2138232393219 63.857259121706036 H 0.0 **** 0.06
6840 H 4.822492807243348 56.83925274926352 62.77352883497588 H 0.0 **** 0.06
6841 C 53.085917512646034 102.93214524583033 97.0696328610332 C 0.0 **** -0.24
6842 H 52.02749674248818 103.11691837175238 96.88622643954022 H 0.0 **** 0.06
6843 H 53.57515594390347 103.86719324020682 97.34396405973405 H 0.0 **** 0.06
6844 H 53.547181734378626 102.53110579505827 96.16787393823904 H 0.0 **** 0.06
6845 H 53.19315537845213 102.214565529531 97.88249010021565 H 0.0 **** 0.06
6846 C 108.56175986870517 57.96549454499308 7.622054519623134 C 0.0 **** -0.24
6847 H 108.93717551599252 57.09844123949665 8.165672233706175 H 0.0 **** 0.06
6848 H 108.58592041293525 58.8399614897823 8.273134734389316 H 0.0 **** 0.06
6849 H 107.53667050669134 57.77710131190369 7.302637305718804 H 0.0 **** 0.06
6850 H 109.18781904409008 58.14520936881729 6.748535201819266 H 0.0 **** 0.06
6851 C 18.78950332132308 30.503914346003462 28.306112474075313 C 0.0 **** -0.24
6852 H 18.825499476287575 31.013926514240254 27.343204146389056 H 0.0 **** 0.06
6853 H 18.563152768969985 29.449629734535783 28.14996547779417 H 0.0 **** 0.06
6854 H 18.015187198238948 30.954708700178813 28.926764179528583 H 0.0 **** 0.06
6855 H 19.754551568006434 30.600132618864308 28.80392518606621 H 0.0 **** 0.06
6856 C 103.01992369708228 11.836128083306562 52.02287570724856 C 0.0 **** -0.24
6857 H 103.52297213459599 12.63444728861009 52.56933917423865 H 0.0 **** 0.06
6858 H 102.70598993203168 12.205698148273086 51.04680035229046 H 0.0 **** 0.06
6859 H 102.14615207495356 11.505508451546689 52.58536697562588 H 0.0 **** 0.06
6860 H 103.70561503861526 10.99846389081722 51.892784672653626 H 0.0 **** 0.06
6861 C 69.12974923590482 14.560145763967466 11.218083379068617 C 0.0 **** -0.24
6862 H 68.67826990152876 13.757915487088098 10.633496681392216 H 0.0 **** 0.06
6863 H 68.67834491238044 15.511483271983707 10.93591205651471 H 0.0 **** 0.06
6864 H 70.20098504292814 14.59276984562587 11.023427328189626 H 0.0 **** 0.06
6865 H 68.95810866253683 14.376852916764758 12.278632191634983 H 0.0 **** 0.06
6866 C 109.53464026043628 41.79325588638602 90.51918838746627 C 0.0 **** -0.24
6867 H 110.54113405852615 41.375079645153306 90.54970823865614 H 0.0 **** 0.06
6868 H 108.82543393783513 41.059530589091395 90.90525867061297 H 0.0 **** 0.06
6869 H 109.27554228750361 42.04406269242321 89.49091911380907 H 0.0 **** 0.06
6870 H 109.49676934138373 42.693065916281114 91.13355984094989 H 0.0 **** 0.06
6871 C 38.82620803017398 88.05333356341411 73.86781866383058 C 0.0 **** -0.24
6872 H 38.21250563302597 88.56317450379706 73.1255464056992 H 0.0 **** 0.06
6873 H 38.61904612424098 88.4668605871434 74.85554685545799 H 0.0 **** 0.06
6874 H 39.87973566146446 88.19458031173326 73.62754088289608 H 0.0 **** 0.06
6875 H 38.59115437733367 86.98874453314535 73.86317532876762 H 0.0 **** 0.06
6876 C 72.67318768575592 55.334213737175105 39.79858433163134 C 0.0 **** -0.24
6877 H 72.93649734336509 56.01726617394516 38.991515004566956 H 0.0 **** 0.06
6878 H 73.38979575595783 55.44108087208758 40.61253814314542 H 0.0 **** 0.06
6879 H 72.69248999521392 54.309797382293794 39.42844377308224 H 0.0 **** 0.06
6880 H 71.67262372289446 55.56975844605378 40.1621500609547 H 0.0 **** 0.06
6881 C 79.37364324533466 15.350855719465983 115.63229628563266 C 0.0 **** -0.24
6882 H 80.4066315858415 15.685514985313958 115.54552801772522 H 0.0 **** 0.06
6883 H 79.01359069073384 15.025138500635776 114.65656118451142 H 0.0 **** 0.06
6884 H 78.75474753215931 16.174097877730148 115.99172514391927 H 0.0 **** 0.06
6885 H 79.31811331113262 14.520815243843941 116.33645946107916 H 0.0 **** 0.06
6886 C 43.15486846880174 47.31854907271446 59.334828715402296 C 0.0 **** -0.24
6887 H 43.77548394803998 46.45919076424471 59.08185390763481 H 0.0 **** 0.06
6888 H 42.10395095687997 47.058469092476315 59.20792187854505 H 0.0 **** 0.06
6889 H 43.405445210789026 48.15281398908229 58.67819334836298 H 0.0 **** 0.06
6890 H 43.33638390112884 47.60556898385914 60.370168381627906 H 0.0 **** 0.06
6891 C 103.1291291757862 5.782157660870157 7.785858942183069 C 0.0 **** -0.24
6892 H 103.28960509326639 6.860277871332585 7.779467716422715 H 0.0 **** 0.06
6893 H 103.50497841970146 5.3540368358924795 6.856853328253351 H 0.0 **** 0.06
6894 H 102.06249116099498 5.574846382438601 7.875869901691317 H 0.0 **** 0.06
6895 H 103.65740640319521 5.340825503563135 8.631110776475879 H 0.0 **** 0.06
6896 C 4.613838599101598 0.9515597695398128 41.572735060161904 C 0.0 **** -0.24
6897 H 4.000918348252924 0.05345044216286965 41.65081816610871 H 0.0 **** 0.06
6898 H 4.3859039172667735 1.6207454572064819 42.40153887859856 H 0.0 **** 0.06
6899 H 4.4000392991862896 1.454699886273886 40.629745963924165 H 0.0 **** 0.06
6900 H 5.667859098501367 0.6749455070183785 41.606035482026186 H 0.0 **** 0.06
6901 C 18.958823406971817 28.278534716222232 101.11286274024287 C 0.0 **** -0.24
6902 H 18.119767636302186 28.86069026733267 101.49281120438962 H 0.0 **** 0.06
6903 H 18.583135971200363 27.41404343443113 100.56564951073571 H 0.0 **** 0.06
6904 H 19.574025833412477 27.941842258104344 101.94791829350935 H 0.0 **** 0.06
6905 H 19.559291056346666 28.898355839310256 100.4471962191628 H 0.0 **** 0.06
6906 C 47.60596210688885 80.6687611395887 68.44135427573669 C 0.0 **** -0.24
6907 H 47.21496907266557 81.1412104193576 67.5398285019088 H 0.0 **** 0.06
6908 H 46.92610311207835 80.8568300393548 69.2732169289986 H 0.0 **** 0.06
6909 H 48.58729142697858 81.08291862980218 68.67291397832889 H 0.0 **** 0.06
6910 H 47.69338340244677 79.59498562669478 68.27857785248125 H 0.0 **** 0.06
6911 C 45.57624230820157 54.72048224403598 111.54970919549135 C 0.0 **** -0.24
6912 H 45.965481801005296 54.94991180839031 110.55716583938289 H 0.0 **** 0.06
6913 H 45.164917435789874 55.62562583670191 111.99642552149123 H 0.0 **** 0.06
6914 H 46.38246771193917 54.33873665793793 112.17564004373804 H 0.0 **** 0.06
6915 H 44.793274445166304 53.96674953577473 111.46663765259365 H 0.0 **** 0.06
6916 C 48.464942401506235 7.355003191148356 115.0189797434043 C 0.0 **** -0.24
6917 H 47.70724876062061 6.624128510480631 115.30290076507372 H 0.0 **** 0.06
6918 H 49.443289689049855 6.875072483408729 114.9999103675491 H 0.0 **** 0.06
6919 H 48.47363751097716 8.168548121329962 115.74412909147988 H 0.0 **** 0.06
6920 H 48.23518033729014 7.752082584177273 114.03031908736153 H 0.0 **** 0.06
6921 C 42.29462684052697 96.19424187883988 70.91125054433923 C 0.0 **** -0.24
6922 H 43.21701918835669 96.66196720996727 71.25486937328301 H 0.0 **** 0.06
6923 H 41.566576947037944 96.1870244961629 71.72252412694525 H 0.0 **** 0.06
6924 H 42.50230188902893 95.16982334881732 70.59883508214865 H 0.0 **** 0.06
6925 H 41.89415222156731 96.75637817804922 70.0669102798753 H 0.0 **** 0.06
6926 C 37.360531792289976 86.95966398011115 64.82221548288007 C 0.0 **** -0.24
6927 H 37.85862837433069 86.95397544302807 65.79266078873047 H 0.0 **** 0.06
6928 H 36.335728702355254 86.60718415365585 64.93833673037648 H 0.0 **** 0.06
6929 H 37.89609706717579 86.30331482277592 64.1360579258095 H 0.0 **** 0.06
6930 H 37.35289073300652 87.97450550999673 64.4243388098443 H 0.0 **** 0.06
6931 C 94.60980774673514 61.18208452547768 22.81456484441796 C 0.0 **** -0.24
6932 H 93.74572542747995 61.84734634626976 22.800105092567662 H 0.0 **** 0.06
6933 H 95.33717307961844 61.54754039865193 23.540360480290076 H 0.0 **** 0.06
6934 H 95.06459030382968 61.155836251028006 21.82450505477979 H 0.0 **** 0.06
6935 H 94.28967228677011 60.17859832654692 23.094154300134477 H 0.0 **** 0.06
6936 C 6.703496111288587 1.3110322095849796 83.68768121954903 C 0.0 **** -0.24
6937 H 6.300381662370285 0.6669681053428747 84.4691693649977 H 0.0 **** 0.06
6938 H 5.881727867927083 1.78552521627347 83.15040479872962 H 0.0 **** 0.06
6939 H 7.294166425003908 0.7130077921461009 82.99396015740213 H 0.0 **** 0.06
6940 H 7.334688793611662 2.076764563641973 84.13783149789371 H 0.0 **** 0.06
6941 C 61.369634036141974 111.47659452394245 84.3032925678906 C 0.0 **** -0.24
6942 H 60.455641193932934 111.97852082732366 84.61914152860692 H 0.0 **** 0.06
6943 H 62.01047247971411 112.18565921023016 83.77754451623059 H 0.0 **** 0.06
6944 H 61.11902657807849 110.65061794655895 83.6368931320369 H 0.0 **** 0.06
6945 H 61.894409345539515 111.09187836161543 85.1776202459111 H 0.0 **** 0.06
6946 C 56.94731245674288 59.61863008527433 47.86913251562231 C 0.0 **** -0.24
6947 H 56.456474388260574 58.65609050077029 47.72549028914523 H 0.0 **** 0.06
6948 H 57.932303487984996 59.46240852323956 48.30771429985907 H 0.0 **** 0.06
6949 H 56.34610290100687 60.23657123879434 48.535957340354116 H 0.0 **** 0.06
6950 H 57.05249989182897 60.11915054023183 46.905813505553056 H 0.0 **** 0.06
6951 C 53.91071644307226 21.65825520583751 48.71475099240908 C 0.0 **** -0.24
6952 H 54.09683217401164 21.04693839086039 49.5986244700855 H 0.0 **** 0.06
6953 H 54.46118268767452 21.24823767316083 47.868379292291706 H 0.0 **** 0.06
6954 H 54.24131153836879 22.679644827790383 48.90444469455679 H 0.0 **** 0.06
6955 H 52.84375420654294 21.656627688858713 48.490944125286234 H 0.0 **** 0.06
6956 C 44.69408306458493 1.4959548013602273 59.05181115249455 C 0.0 **** -0.24
6957 H 45.173805605689495 2.4184019324695214 58.72320473073461 H 0.0 **** 0.06
6958 H 43.61092968550864 1.6097749965076673 58.99372193629105 H 0.0 **** 0.06
6959 H 44.98228521940632 1.2835926419955683 60.08142194989033 H 0.0 **** 0.06
6960 H 45.00865955936618 0.6743407891241304 58.40946660838428 H 0.0 **** 0.06
6961 C 84.47547281153828 70.23679151978381 75.55958785371399 C 0.0 **** -0.24
6962 H 83.92377951676255 71.16197487926449 75.39488273146486 H 0.0 **** 0.06
6963 H 83.83777953044176 69.52168089399714 76.08051366418312 H 0.0 **** 0.06
6964 H 85.35981233020237 70.44281555558494 76.16247362995813 H 0.0 **** 0.06
6965 H 84.77994039729217 69.82011883420455 74.59932698584515 H 0.0 **** 0.06
6966 C 72.59603195560359 69.59709338389729 42.88450789298824 C 0.0 **** -0.24
6967 H 72.70775767097852 69.42380825744618 43.954628521201755 H 0.0 **** 0.06
6968 H 72.04821612627494 70.52565014890195 42.721867973308804 H 0.0 **** 0.06
6969 H 72.04757196120208 68.76722322070515 42.43807453813946 H 0.0 **** 0.06
6970 H 73.58070992880734 69.67028538315827 42.42338671067154 H 0.0 **** 0.06
6971 C 6.149771447386456 22.495069059946417 38.97928690995832 C 0.0 **** -0.24
6972 H 5.287267428448331 23.151851150112577 38.86319774403185 H 0.0 **** 0.06
6973 H 5.817424037776647 21.5158548778233 39.3237478386103 H 0.0 **** 0.06
6974 H 6.8362381214028005 22.924040458888214 39.709354445847936 H 0.0 **** 0.06
6975 H 6.657673580968151 22.38957687521338 38.020028632874386 H 0.0 **** 0.06
6976 C 1.1427390255821877 82.7357395467136 15.628899711626875 C 0.0 **** -0.24
6977 H 0.7420569618742121 83.53815806917535 15.0094968123997 H 0.0 **** 0.06
6978 H 0.4432346861896832 82.51686293910535 16.435929628758092 H 0.0 **** 0.06
6979 H 2.0991140144704445 83.04474710397704 16.049925511851438 H 0.0 **** 0.06
6980 H 1.2845419643550144 81.84335176086833 15.019277270751815 H 0.0 **** 0.06
6981 C 68.40226602172879 48.208512592761394 51.97807822514582 C 0.0 **** -0.24
6982 H 67.35931548370988 47.89152990737701 51.96050748253174 H 0.0 **** 0.06
6983 H 68.45038038039594 49.297857614982384 51.98889682768157 H 0.0 **** 0.06
6984 H 68.91098263038579 47.831638589807355 51.09050964714666 H 0.0 **** 0.06
6985 H 68.88808823356754 47.81423185163858 52.87054056173696 H 0.0 **** 0.06
6986 C 81.65634578527049 35.95848337506153 83.74238205936075 C 0.0 **** -0.24
6987 H 80.7221156622803 35.504759501409865 84.07244455178818 H 0.0 **** 0.06
6988 H 81.45100878288882 36.670635693012244 82.94315471696996 H 0.0 **** 0.06
6989 H 82.32700114288993 35.18134322919447 83.37380612043762 H 0.0 **** 0.06
6990 H 82.1250790769109 36.476542155585406 84.57938671154153 H 0.0 **** 0.06
6991 C 55.505204960567056 111.19742735368439 109.86446342438968 C 0.0 **** -0.24
6992 H 55.726055413570265 110.22469366886776 109.42386511822542 H 0.0 **** 0.06
6993 H 56.3494601924115 111.51913512030617 110.47519809371892 H 0.0 **** 0.06
6994 H 54.61462069140458 111.11939905692844 110.48708106719292 H 0.0 **** 0.06
6995 H 55.33215839065403 111.92414118251764 109.07111960687031 H 0.0 **** 0.06
6996 C 13.179201233341619 5.622277425435016 22.19395570495155 C 0.0 **** -0.24
6997 H 13.752730945851674 4.791493904525112 21.781967831207965 H 0.0 **** 0.06
6998 H 13.100250142391854 6.413461874826879 21.448416006075263 H 0.0 **** 0.06
6999 H 13.68279637405605 6.005809137475012 23.08063086853838 H 0.0 **** 0.06
7000 H 12.181923235097312 5.275063576422639 22.46324860325518 H 0.0 **** 0.06
7001 C 83.3650717534311 12.001313944089503 97.3590313530409 C 0.0 **** -0.24
7002 H 83.95937621852676 11.23047399440182 97.84922876751062 H 0.0 **** 0.06
7003 H 82.6938439827926 12.460126073379683 98.08644209140522 H 0.0 **** 0.06
7004 H 82.77978557972403 11.554276052168916 96.55626694175447 H 0.0 **** 0.06
7005 H 84.0273843293096 12.761760772971968 96.94563056525891 H 0.0 **** 0.06
7006 C 42.93722529036256 44.69532991389638 5.995525397132525 C 0.0 **** -0.24
7007 H 43.77298510009871 44.0010285009502 6.067375982275564 H 0.0 **** 0.06
7008 H 42.50919115960039 44.85427149312462 6.985949036808989 H 0.0 **** 0.06
7009 H 42.176084771532544 44.28189104628502 5.333107838398007 H 0.0 **** 0.06
7010 H 43.288357694167416 45.646854974498694 5.594503292565719 H 0.0 **** 0.06
7011 C 16.40375245779929 30.87982656911265 1.9316285726927163 C 0.0 **** -0.24
7012 H 17.113291242719157 30.276063949113905 1.3650784743712165 H 0.0 **** 0.06
7013 H 15.610529140144877 31.224604972602663 1.2673385409647153 H 0.0 **** 0.06
7014 H 16.91867197469632 31.7391136556939 2.360087544720841 H 0.0 **** 0.06
7015 H 15.972810295451463 30.277905362359036 2.7313086549300465 H 0.0 **** 0.06
7016 C 86.44968295726059 16.631359076425678 71.4509634876286 C 0.0 **** -0.24
7017 H 86.69856954161583 16.858381717431318 72.48756550309389 H 0.0 **** 0.06
7018 H 85.56752620551171 15.991837255469605 71.42128423357377 H 0.0 **** 0.06
7019 H 87.28869030511495 16.117359859445862 70.9807804469333 H 0.0 **** 0.06
7020 H 86.24607198494965 17.558349180400825 70.91533633343113 H 0.0 **** 0.06
7021 C 5.8236652426707565 25.702368820796067 23.714304488364064 C 0.0 **** -0.24
7022 H 5.226971166099219 25.604508081608685 24.621133028195914 H 0.0 **** 0.06
7023 H 6.738088549116071 26.252678838175427 23.938173900910584 H 0.0 **** 0.06
7024 H 5.250801956258343 26.240831473560064 22.958973957226277 H 0.0 **** 0.06
7025 H 6.079274015033633 24.71076670695834 23.33839085348552 H 0.0 **** 0.06
7026 C 61.71486965540993 112.37780296920144 43.676192848551295 C 0.0 **** -0.24
7027 H 61.32674034136795 113.24754684084664 44.20622566218293 H 0.0 **** 0.06
7028 H 62.29858690746585 111.76472354038862 44.36374532437367 H 0.0 **** 0.06
7029 H 62.349641669368566 112.70659039114383 42.85363291189833 H 0.0 **** 0.06
7030 H 60.883165083895875 111.79249998794683 43.28294797779088 H 0.0 **** 0.06
7031 C 79.17671576446519 34.02865262151395 94.58082791066514 C 0.0 **** -0.24
7032 H 78.96116519552655 35.07979837614185 94.77004750812975 H 0.0 **** 0.06
7033 H 80.09082615687625 33.9454889643726 93.99212373478322 H 0.0 **** 0.06
7034 H 78.3481043410367 33.58167950958202 94.03205685837007 H 0.0 **** 0.06
7035 H 79.30683584934242 33.508613825781005 95.5293161319786 H 0.0 **** 0.06
7036 C 106.6499126395244 16.882446629784667 102.10865802213685 C 0.0 **** -0.24
7037 H 107.3365826571831 16.25022766635086 101.54505792773237 H 0.0 **** 0.06
7038 H 105.98582084190015 17.40232633446878 101.41785214923713 H 0.0 **** 0.06
7039 H 107.21877417969145 17.612157870066177 102.68502302633524 H 0.0 **** 0.06
7040 H 106.05990235107645 16.26534173671887 102.7850002920484 H 0.0 **** 0.06
7041 C 82.34277922348232 49.42343502481987 60.783602241973796 C 0.0 **** -0.24
7042 H 81.54377261721405 50.03810068904943 60.36846955892992 H 0.0 **** 0.06
7043 H 82.29807134409062 48.42580317221331 60.345658751436076 H 0.0 **** 0.06
7044 H 82.22130155168252 49.351974536255966 61.86454495054741 H 0.0 **** 0.06
7045 H 83.30679566949915 49.87707618081441 60.555763512916144 H 0.0 **** 0.06
7046 C 13.051035421826384 13.078440170987676 50.21544593448078 C 0.0 **** -0.24
7047 H 13.860151553841973 12.992748587270341 49.489805790986 H 0.0 **** 0.06
7048 H 12.20182648901617 13.582151359498539 49.7530858878778 H 0.0 **** 0.06
7049 H 13.39277913676213 13.654732916498915 51.07452939494033 H 0.0 **** 0.06
7050 H 12.749505757802908 12.082962950240244 50.5422112189226 H 0.0 **** 0.06
7051 C 49.0477346216075 76.09473169450492 56.100828769322746 C 0.0 **** -0.24
7052 H 49.91578130295312 75.6183943009832 55.64443613742926 H 0.0 **** 0.06
7053 H 48.23163357643509 76.12931582236413 55.37844408610482 H 0.0 **** 0.06
7054 H 49.30854797963619 77.10900746346967 56.40318057795949 H 0.0 **** 0.06
7055 H 48.73675868351563 75.52322191788234 56.97464741541293 H 0.0 **** 0.06
7056 C 11.085169874680872 72.65172765112675 77.69679820749526 C 0.0 **** -0.24
7057 H 11.075766504063864 72.11398141572045 76.74893424337117 H 0.0 **** 0.06
7058 H 10.869349500257215 73.70525497622589 77.51737321236601 H 0.0 **** 0.06
7059 H 12.06797041770875 72.55487534493048 78.15919558379227 H 0.0 **** 0.06
7060 H 10.32827624737584 72.23302221714766 78.35934805306572 H 0.0 **** 0.06
7061 C 80.98360203583854 97.57808409874139 79.98732610642833 C 0.0 **** -0.24
7062 H 82.02269739087512 97.54516697464061 80.3176743533918 H 0.0 **** 0.06
7063 H 80.93470722416373 98.01109229657862 78.98839631312808 H 0.0 **** 0.06
7064 H 80.40333126348412 98.18967616171881 80.67812457585927 H 0.0 **** 0.06
7065 H 80.57721689616636 96.56692395810978 79.96618754313809 H 0.0 **** 0.06
7066 C 70.54668316587089 109.39561572111725 16.370234382208032 C 0.0 **** -0.24
7067 H 70.68177500244967 110.45980457701448 16.180148193017413 H 0.0 **** 0.06
7068 H 69.6355025421214 109.24240789032521 16.94736929882962 H 0.0 **** 0.06
7069 H 71.40123739636704 109.01684048632887 16.93133951452291 H 0.0 **** 0.06
7070 H 70.470472590542 108.86382274570097 15.421217101737444 H 0.0 **** 0.06
7071 C 31.48211367740393 1.0712891577806545 33.61072684510623 C 0.0 **** -0.24
7072 H 31.51485240380086 1.5141937307112414 34.60696645570147 H 0.0 **** 0.06
7073 H 31.784376760257658 1.8136493665773372 32.87302784054276 H 0.0 **** 0.06
7074 H 30.466979424491 0.7357771445652759 33.39596475944791 H 0.0 **** 0.06
7075 H 32.16214434859603 0.21974980579028625 33.57023444066323 H 0.0 **** 0.06
7076 C 22.168786436592825 84.42398513266254 67.00414662418945 C 0.0 **** -0.24
7077 H 22.006005836168697 85.29318277233513 67.64178799759645 H 0.0 **** 0.06
7078 H 22.054603172031534 84.71371538344583 65.9590149649963 H 0.0 **** 0.06
7079 H 21.438856895824472 83.65262232437671 67.24899722673518 H 0.0 **** 0.06
7080 H 23.17439510413959 84.03700650809475 67.16671128114092 H 0.0 **** 0.06
7081 C 113.52317323503982 7.750754323911195 25.252504493626645 C 0.0 **** -0.24
7082 H 114.35577419488538 8.174654146306764 25.813976790368542 H 0.0 **** 0.06
7083 H 112.58542389578449 8.000261306400404 25.7507224136462 H 0.0 **** 0.06
7084 H 113.631018681773 6.667620045630784 25.203331337660813 H 0.0 **** 0.06
7085 H 113.51812953629283 8.161587447996837 24.24311495773577 H 0.0 **** 0.06
7086 C 64.35063852764102 35.926696663058465 80.14026396216497 C 0.0 **** -0.24
7087 H 64.8333690540411 35.167676534660515 79.52574206478602 H 0.0 **** 0.06
7088 H 65.0811603434783 36.36148516426354 80.82261314064112 H 0.0 **** 0.06
7089 H 63.54390724377714 35.47032546985727 80.71455532476716 H 0.0 **** 0.06
7090 H 63.94218470620581 36.70836711292348 79.49920594819861 H 0.0 **** 0.06
7091 C 112.4703942484967 83.50756382866956 11.769060409934522 C 0.0 **** -0.24
7092 H 111.63643636995424 83.33177322052495 12.448745989968842 H 0.0 **** 0.06
7093 H 112.47062597425185 82.74476630445417 10.98933383227196 H 0.0 **** 0.06
7094 H 113.40709741228062 83.46005926614436 12.324246002454306 H 0.0 **** 0.06
7095 H 112.36680580829926 84.49208655605605 11.31431771922357 H 0.0 **** 0.06
7096 C 84.04327069658066 32.41539784854186 74.78880233829392 C 0.0 **** -0.24
7097 H 84.66427390229984 31.6109813861448 74.39601401652203 H 0.0 **** 0.06
7098 H 84.66716256624164 33.282076919517095 75.00638876972852 H 0.0 **** 0.06
7099 H 83.55254434427434 32.08180351771611 75.70361984692872 H 0.0 **** 0.06
7100 H 83.28882533650503 32.68534279799849 74.04916557951259 H 0.0 **** 0.06
7101 C 55.68823941138191 47.09213408519759 93.01978160140794 C 0.0 **** -0.24
7102 H 55.06617865269385 46.391121477719054 93.57758028484919 H 0.0 **** 0.06
7103 H 55.68840239596798 46.81680204999446 91.96466556352398 H 0.0 **** 0.06
7104 H 56.70686819733439 47.05895858086402 93.40554098638226 H 0.0 **** 0.06
7105 H 55.28978273289005 48.10016221952262 93.132231935122 H 0.0 **** 0.06
7106 C 44.71058001469534 113.60454885880084 46.45059227812334 C 0.0 **** -0.24
7107 H 43.827812893661104 114.24022590285644 46.36660661629378 H 0.0 **** 0.06
7108 H 44.489383489712424 112.6204709838701 46.037602719074826 H 0.0 **** 0.06
7109 H 44.98717183556539 113.50550890606333 47.500055751909 H 0.0 **** 0.06
7110 H 45.535353434538685 114.05347953293156 45.89793364950968 H 0.0 **** 0.06
7111 C 110.86972680123657 114.2048177428045 102.97362021065004 C 0.0 **** -0.24
7112 H 110.76880003390167 113.47821307978359 102.16758051525954 H 0.0 **** 0.06
7113 H 111.84261693318324 114.08394843517613 103.450795227382 H 0.0 **** 0.06
7114 H 110.08083361351663 114.04398430412402 103.70811164999714 H 0.0 **** 0.06
7115 H 110.78686314955553 115.21221298878248 102.56596229519971 H 0.0 **** 0.06
7116 C 78.56450620874779 70.9488046690019 104.34788642537887 C 0.0 **** -0.24
7117 H 78.0451167402742 71.45926077825277 103.53623763946547 H 0.0 **** 0.06
7118 H 78.22415813035119 71.34625849716451 105.30379184087786 H 0.0 **** 0.06
7119 H 79.63799285476436 71.11030069981416 104.24897224681496 H 0.0 **** 0.06
7120 H 78.35167205059096 69.88134051591538 104.30044808583261 H 0.0 **** 0.06
7121 C 112.81286847584045 99.25692059156296 99.25806916706046 C 0.0 **** -0.24
7122 H 112.2638444957201 99.73249126160346 98.44549378707376 H 0.0 **** 0.06
7123 H 112.39647279407316 99.57623945590285 100.21338411305982 H 0.0 **** 0.06
7124 H 113.86303244135445 99.54477543142318 99.20380295344114 H 0.0 **** 0.06
7125 H 112.72898366981724 98.17409958640411 99.16809396175881 H 0.0 **** 0.06
7126 C 58.24256332596832 73.63972005273736 59.67460029943223 C 0.0 **** -0.24
7127 H 58.35981659871754 72.57398111310731 59.87471482039227 H 0.0 **** 0.06
7128 H 58.07411849270511 73.79183793746138 58.60778207339685 H 0.0 **** 0.06
7129 H 59.1461882548212 74.16732745792187 59.97968710909332 H 0.0 **** 0.06
7130 H 57.39064209918848 74.02209762209995 60.2354978710555 H 0.0 **** 0.06
7131 C 25.561364239433942 11.341998747092418 70.56469098124577 C 0.0 **** -0.24
7132 H 26.344232440365204 11.478028251785759 69.81960318826401 H 0.0 **** 0.06
7133 H 24.607346578732802 11.173190306581091 70.06409969870803 H 0.0 **** 0.06
7134 H 25.493603838496426 12.234888171801742 71.18687311360621 H 0.0 **** 0.06
7135 H 25.801491947047793 10.481414096445121 71.19000239508577 H 0.0 **** 0.06
7136 C 113.28614339734715 83.5236380589522 112.56575138688687 C 0.0 **** -0.24
7137 H 113.81533368426668 83.95984096808365 113.41267534309397 H 0.0 **** 0.06
7138 H 112.2968215129361 83.19597710026073 112.8854278972013 H 0.0 **** 0.06
7139 H 113.84819148151252 82.66832844174348 112.18810197819097 H 0.0 **** 0.06
7140 H 113.18545682281317 84.26830265645492 111.77654585517162 H 0.0 **** 0.06
7141 C 28.80503033689797 31.73950517978139 8.031013271528792 C 0.0 **** -0.24
7142 H 27.835049436379393 32.07715873297198 7.663146714252491 H 0.0 **** 0.06
7143 H 28.904633455172473 32.00300410408872 9.083886045403688 H 0.0 **** 0.06
7144 H 29.597621649586245 32.21987197798296 7.458184984395501 H 0.0 **** 0.06
7145 H 28.878691102304742 30.6577557250246 7.9178727380976 H 0.0 **** 0.06
7146 C 25.902906383461776 43.53979131548397 59.8399871604056 C 0.0 **** -0.24
7147 H 25.236986964551683 43.41512879246329 58.98652181451763 H 0.0 **** 0.06
7148 H 25.435818261527757 44.197994170841696 60.57180283153764 H 0.0 **** 0.06
7149 H 26.84342962424988 43.97716843188482 59.504856065152325 H 0.0 **** 0.06
7150 H 26.09626367649559 42.568733680110824 60.29471402796378 H 0.0 **** 0.06
7151 C 64.47250805264044 11.715859657501369 6.8136986247343145 C 0.0 **** -0.24
7152 H 65.28682296514813 11.930470592164568 6.120992355353408 H 0.0 **** 0.06
7153 H 64.1738610283016 12.634855302522368 7.31763263837567 H 0.0 **** 0.06
7154 H 64.80708372069245 10.988070342685461 7.552907923004298 H 0.0 **** 0.06
7155 H 63.62429625031608 11.311218710718862 6.262562587899566 H 0.0 **** 0.06
7156 C 63.23027013199862 42.602838456914014 85.28057195339767 C 0.0 **** -0.24
7157 H 62.35239048623515 42.03350590016754 85.58791115993182 H 0.0 **** 0.06
7158 H 62.945009298035814 43.32563393938602 84.51585597383155 H 0.0 **** 0.06
7159 H 63.98069295563647 41.924127196632014 84.87751233102807 H 0.0 **** 0.06
7160 H 63.640525912562225 43.12882512109542 86.14285079469752 H 0.0 **** 0.06
7161 C 70.17965362340738 115.5535410061666 44.12175794719076 C 0.0 **** -0.24
7162 H 69.11827827774835 115.3825448255352 44.299601123047466 H 0.0 **** 0.06
7163 H 70.76391190074804 114.83881176093684 44.70288188211546 H 0.0 **** 0.06
7164 H 70.44014956314297 116.5678206255098 44.42430757357596 H 0.0 **** 0.06
7165 H 70.39612253880136 115.42344263503617 43.061503182283644 H 0.0 **** 0.06
7166 C 65.98917601338397 49.11330950010955 70.92022611857134 C 0.0 **** -0.24
7167 H 64.90279357381846 49.12450204319805 71.0056804961054 H 0.0 **** 0.06
7168 H 66.41293420226987 49.86701367018384 71.58527249234471 H 0.0 **** 0.06
7169 H 66.27529604572706 49.33406646559558 69.89158853564032 H 0.0 **** 0.06
7170 H 66.36510738163977 48.129264701163436 71.19865194755373 H 0.0 **** 0.06
7171 C 35.381165293870296 92.28666326236896 7.058921008218192 C 0.0 **** -0.24
7172 H 36.020687672609725 92.94429688888977 6.470832026881794 H 0.0 **** 0.06
7173 H 35.75036234349438 91.26309798501546 6.988144834288846 H 0.0 **** 0.06
7174 H 34.362634750748164 92.33273471273185 6.6752878127607005 H 0.0 **** 0.06
7175 H 35.39210796970025 92.60570268137815 8.101204880364833 H 0.0 **** 0.06
7176 C 75.37086115031178 94.35528393476545 52.130134467545304 C 0.0 **** -0.24
7177 H 75.65543456314695 94.5092635229741 51.09009758615349 H 0.0 **** 0.06
7178 H 74.4606019352754 94.91606454381555 52.344440028866984 H 0.0 **** 0.06
7179 H 76.17242330162676 94.70210517297723 52.78177981749502 H 0.0 **** 0.06
7180 H 75.193453670818 93.29347180145912 52.30583372703194 H 0.0 **** 0.06
7181 C 40.55273951645063 113.05744737048622 15.424819754115632 C 0.0 **** -0.24
7182 H 40.9818714654985 114.05067234497973 15.557437558940265 H 0.0 **** 0.06
7183 H 39.57252985513409 113.14549882236477 14.95602072561725 H 0.0 **** 0.06
7184 H 40.44975801891965 112.57321449706615 16.39513661176936 H 0.0 **** 0.06
7185 H 41.20783902390056 112.46194795804787 14.78793930022249 H 0.0 **** 0.06
7186 C 55.6620375184344 19.619065268366143 41.93144256577062 C 0.0 **** -0.24
7187 H 55.68900736629334 18.56948174775448 42.222876208817226 H 0.0 **** 0.06
7188 H 54.87012723214224 19.771865557155905 41.198393652753246 H 0.0 **** 0.06
7189 H 56.62036219293665 19.900007399819685 41.49599472222654 H 0.0 **** 0.06
7190 H 55.467977322140655 20.234529767087764 42.809689470947184 H 0.0 **** 0.06
7191 C 29.815579026853527 10.742844190424364 110.89968287226239 C 0.0 **** -0.24
7192 H 28.852969215103485 10.28545519831448 111.1273650834131 H 0.0 **** 0.06
7193 H 30.26028371358788 10.243738159395491 110.03866691883428 H 0.0 **** 0.06
7194 H 30.47779659059978 10.642834971238699 111.76034521898195 H 0.0 **** 0.06
7195 H 29.67103625435422 11.800038863660347 110.6735668539968 H 0.0 **** 0.06
7196 C 60.20753493289476 100.57666133133813 3.802396698704186 C 0.0 **** -0.24
7197 H 60.693303000173785 99.77030901932808 3.253016246137719 H 0.0 **** 0.06
7198 H 59.44845534205268 100.15881619064866 4.465058203885164 H 0.0 **** 0.06
7199 H 59.736892818739136 101.26353171300444 3.0983692266076304 H 0.0 **** 0.06
7200 H 60.94960993435035 101.11338712120167 4.392812340022331 H 0.0 **** 0.06
7201 C 80.76112051323466 79.8563444746583 72.88905434667703 C 0.0 **** -0.24
7202 H 80.56600025331421 80.89514868940564 73.1561544514058 H 0.0 **** 0.06
7203 H 80.66203019280586 79.22851528800739 73.77449218663833 H 0.0 **** 0.06
7204 H 81.77295314720787 79.76718446021921 72.49191980452471 H 0.0 **** 0.06
7205 H 80.04451138045688 79.53550674403013 72.13222998084319 H 0.0 **** 0.06
7206 C 24.61711365224052 55.859126238084 47.44829162566505 C 0.0 **** -0.24
7207 H 24.569372331045955 56.917862396095074 47.703523053713894 H 0.0 **** 0.06
7208 H 23.884078394804277 55.64004230764692 46.67168482873288 H 0.0 **** 0.06
7209 H 24.398778589206728 55.26229443738629 48.333254390700986 H 0.0 **** 0.06
7210 H 25.615799733821817 55.617942299041715 47.08432876077575 H 0.0 **** 0.06
7211 C 47.240162221641185 72.62066477501924 102.85575874508777 C 0.0 **** -0.24
7212 H 47.17138773307539 72.28649671786258 101.82094848042743 H 0.0 **** 0.06
7213 H 47.33202454509566 73.70680466246313 102.8809589577686 H 0.0 **** 0.06
7214 H 48.11441650454242 72.17028101570713 103.32615803461158 H 0.0 **** 0.06
7215 H 46.34157316337664 72.31973921094539 103.3950491177369 H 0.0 **** 0.06
7216 C 55.505505432637506 78.44439080940529 76.98372981632339 C 0.0 **** -0.24
7217 H 55.230046795570445 79.12866993102378 76.18136445944897 H 0.0 **** 0.06
7218 H 55.38809229720792 77.41583872496219 76.64090131133946 H 0.0 **** 0.06
7219 H 54.86070662728048 78.61611580857684 77.84541801980035 H 0.0 **** 0.06
7220 H 56.54398014465602 78.61639175653545 77.26700266999929 H 0.0 **** 0.06
7221 C 26.524416388178963 92.73409746097568 52.30593946065215 C 0.0 **** -0.24
7222 H 25.654189098164522 92.39227634468904 51.744021812004064 H 0.0 **** 0.06
7223 H 26.396977975962386 92.48492944033177 53.35936211954871 H 0.0 **** 0.06
7224 H 26.62555373712854 93.81341744385617 52.19738026230898 H 0.0 **** 0.06
7225 H 27.41909112385622 92.24450664490729 51.922005256997785 H 0.0 **** 0.06
7226 C 62.12972071171032 80.41003929349841 114.09163989348552 C 0.0 **** -0.24
7227 H 62.16917498938517 80.97558405473353 113.1597997090558 H 0.0 **** 0.06
7228 H 63.14293087345328 80.24762885139029 114.46116208643726 H 0.0 **** 0.06
7229 H 61.6489875569856 79.44830534730522 113.91169261584109 H 0.0 **** 0.06
7230 H 61.55829991003631 80.97012999292232 114.83116350636938 H 0.0 **** 0.06
7231 C 19.651809857050125 12.903663872733091 32.639226801265686 C 0.0 **** -0.24
7232 H 18.60889603311125 13.219708555970499 32.63941902095292 H 0.0 **** 0.06
7233 H 20.288549609326054 13.754138249385619 32.39111089704441 H 0.0 **** 0.06
7234 H 19.79221863303519 12.117180918295219 31.898108417075974 H 0.0 **** 0.06
7235 H 19.91735295929834 12.525288141592739 33.625989781987656 H 0.0 **** 0.06
7236 C 44.96106469671169 89.74618800689501 31.035565356569293 C 0.0 **** -0.24
7237 H 44.36341629477195 89.40813362890144 30.18960842933683 H 0.0 **** 0.06
7238 H 44.357192389489086 89.71472727887536 31.94247826063915 H 0.0 **** 0.06
7239 H 45.296320233003115 90.76866318512405 30.858035467787573 H 0.0 **** 0.06
7240 H 45.82685738090319 89.09484124604869 31.152556583093258 H 0.0 **** 0.06
7241 C 60.87003399456266 71.06266706043958 17.85454695453558 C 0.0 **** -0.24
7242 H 61.342270018627616 70.61658365454981 18.73083879406505 H 0.0 **** 0.06
7243 H 61.51262924125686 71.84662640728615 17.455625203438274 H 0.0 **** 0.06
7244 H 59.908253496854144 71.48886915685787 18.139184579995913 H 0.0 **** 0.06
7245 H 60.71680650717711 70.29541343435056 17.095520094336962 H 0.0 **** 0.06
7246 C 39.608847516780344 44.73924490371729 79.71276542001777 C 0.0 **** -0.24
7247 H 40.501425811653334 44.923093605767576 79.11501364929222 H 0.0 **** 0.06
7248 H 39.85178639100441 44.05489395751039 80.52597822872474 H 0.0 **** 0.06
7249 H 38.835320166393956 44.29739330815238 79.08474380148093 H 0.0 **** 0.06
7250 H 39.247514738908805 45.6807339736863 80.1262318616744 H 0.0 **** 0.06
7251 C 62.23627081578712 69.72620555484724 71.7609685710295 C 0.0 **** -0.24
7252 H 61.546624794005936 70.20909771853223 72.4542514519193 H 0.0 **** 0.06
7253 H 63.2154360614378 70.19940775484207 71.83477003043122 H 0.0 **** 0.06
7254 H 61.85880124315082 69.82749564774056 70.74315442971127 H 0.0 **** 0.06
7255 H 62.32291004057089 68.6689892024757 72.01376066108813 H 0.0 **** 0.06
7256 C 22.737494515601384 84.57619796766181 18.040792785999326 C 0.0 **** -0.24
7257 H 22.69846780496937 85.32940767833497 17.253926471891695 H 0.0 **** 0.06
7258 H 21.724260607362055 84.33261121702714 18.360836710281642 H 0.0 **** 0.06
7259 H 23.302109032534645 84.96495701017705 18.888494049435092 H 0.0 **** 0.06
7260 H 23.22400903766254 83.67870212357508 17.660880566794745 H 0.0 **** 0.06
7261 C 109.56393277649377 13.104861824714476 45.115144317517036 C 0.0 **** -0.24
7262 H 108.52312053503746 12.792836208874974 45.02835461895842 H 0.0 **** 0.06
7263 H 109.76882669715403 13.404577007007504 46.142531197539256 H 0.0 **** 0.06
7264 H 109.7487290588794 13.945472452974798 44.44707276255863 H 0.0 **** 0.06
7265 H 110.21535801655759 12.27324342208209 44.84167093191343 H 0.0 **** 0.06
7266 C 36.58515385404388 80.46061348340385 43.846859720126055 C 0.0 **** -0.24
7267 H 36.105471031094396 79.48829409496766 43.72997083827579 H 0.0 **** 0.06
7268 H 36.45473807425975 81.0423025305842 42.93415705900233 H 0.0 **** 0.06
7269 H 37.649611886879995 80.31955064266431 44.03882331838511 H 0.0 **** 0.06
7270 H 36.13218687211088 80.99032959841469 44.684096979025114 H 0.0 **** 0.06
7271 C 20.001736537544247 55.21016063966363 42.16033087131946 C 0.0 **** -0.24
7272 H 19.813595470078212 54.435062338442435 41.417056260971265 H 0.0 **** 0.06
7273 H 19.957716241353154 56.1890917979357 41.68372462405546 H 0.0 **** 0.06
7274 H 20.990368523006765 55.06212484097313 42.59657947025656 H 0.0 **** 0.06
7275 H 19.246395467502282 55.15305408272664 42.94406058191544 H 0.0 **** 0.06
7276 C 52.31809892463167 17.927552697774047 33.850620276010716 C 0.0 **** -0.24
7277 H 51.945106889818874 17.874008912100578 34.87301330816692 H 0.0 **** 0.06
7278 H 52.00228709570291 18.86680201858907 33.397053158122276 H 0.0 **** 0.06
7279 H 51.91944073301207 17.092673000282417 33.27376923317817 H 0.0 **** 0.06
7280 H 53.40727034430489 17.875296615305814 33.85846441364309 H 0.0 **** 0.06
7281 C 12.623681484108232 64.4166128252954 92.50324094939047 C 0.0 **** -0.24
7282 H 11.843405898367621 63.710397586615514 92.21761241291841 H 0.0 **** 0.06
7283 H 12.438920321193109 65.37628140964327 92.02134777594142 H 0.0 **** 0.06
7284 H 13.593683240392238 64.03163449301755 92.18786045289932 H 0.0 **** 0.06
7285 H 12.618348624858442 64.54488460343924 93.58561217054692 H 0.0 **** 0.06
7286 C 72.87841972255818 21.076306080126766 50.31582296155332 C 0.0 **** -0.24
7287 H 71.93966162067187 20.5550667690132 50.13021767809485 H 0.0 **** 0.06
7288 H 73.29010670291873 21.431570080324793 49.3709817618014 H 0.0 **** 0.06
7289 H 73.58666327535155 20.393781650868263 50.78636846485932 H 0.0 **** 0.06
7290 H 72.6987045693639 21.9247251141502 50.9766566781409 H 0.0 **** 0.06
7291 C 95.2101017124961 103.4097520325812 110.1368332134453 C 0.0 **** -0.24
7292 H 94.72783140305893 103.14571134779439 111.07829933140931 H 0.0 **** 0.06
7293 H 96.26432006253769 103.62142275306687 110.31623150093702 H 0.0 **** 0.06
7294 H 94.72732182465766 104.29163249217308 109.7170607438319 H 0.0 **** 0.06
7295 H 95.12023883935422 102.5781478841368 109.43800723185956 H 0.0 **** 0.06
7296 C 95.55030348062007 103.67877226571395 73.72447969893773 C 0.0 **** -0.24
7297 H 95.8710105248272 104.47008019738317 73.04588086039976 H 0.0 **** 0.06
7298 H 95.49171938578496 104.0723771543052 74.73891974757711 H 0.0 **** 0.06
7299 H 96.26867038076375 102.8598424511988 73.69214567137773 H 0.0 **** 0.06
7300 H 94.56919777580202 103.31424417640407 73.4177314240471 H 0.0 **** 0.06
7301 C 57.39030184118445 21.638109602377597 17.618096543714984 C 0.0 **** -0.24
7302 H 57.27912638758622 21.61562729688643 16.534068817266927 H 0.0 **** 0.06
7303 H 56.68852709898478 22.357422724618687 18.040512701911496 H 0.0 **** 0.06
7304 H 58.40905394706053 21.931460172037987 17.872674978239615 H 0.0 **** 0.06
7305 H 57.18543146983079 20.64763827141678 18.02491007638355 H 0.0 **** 0.06
7306 C 14.698067965074248 40.88071087460986 87.44388197322121 C 0.0 **** -0.24
7307 H 14.14907820099209 40.55772599383636 88.32772443130523 H 0.0 **** 0.06
7308 H 14.172567982918636 40.546371204906706 86.54831599886535 H 0.0 **** 0.06
7309 H 15.69942073246617 40.45072374497789 87.460168286954 H 0.0 **** 0.06
7310 H 14.76973798176725 41.968830367247904 87.43822570037929 H 0.0 **** 0.06
7311 C 72.16764762124251 78.47258673688643 87.81230719451409 C 0.0 **** -0.24
7312 H 72.84492760689136 79.27114069279747 87.50694832019869 H 0.0 **** 0.06
7313 H 71.4955758613174 78.84259340569109 88.58624591185824 H 0.0 **** 0.06
7314 H 72.74760857153362 77.63618479759721 88.20313027243408 H 0.0 **** 0.06
7315 H 71.58650570286761 78.14121484508114 86.9518257675545 H 0.0 **** 0.06
7316 C 2.229041933354665 79.78704638269255 10.558961581256085 C 0.0 **** -0.24
7317 H 1.390097933785512 79.47348502776947 11.180836842403664 H 0.0 **** 0.06
7318 H 2.4798212147566687 78.98916591292266 9.85898005271747 H 0.0 **** 0.06
7319 H 3.0902201717964317 80.00013753701441 11.19261115398416 H 0.0 **** 0.06
7320 H 1.954427557659244 80.68404193856747 10.004193653848745 H 0.0 **** 0.06
7321 C 14.47673216645535 57.536130382133535 64.72618413134362 C 0.0 **** -0.24
7322 H 15.25296893318108 57.876795858056255 64.04064850470678 H 0.0 **** 0.06
7323 H 14.920328218918513 57.31828035137585 65.69817462079779 H 0.0 **** 0.06
7324 H 14.011919803191233 56.63334973832002 64.32801932211176 H 0.0 **** 0.06
7325 H 13.722067812027547 58.314303166184175 64.83626288714804 H 0.0 **** 0.06
7326 C 104.53940817427106 114.9546163268034 57.92747593936144 C 0.0 **** -0.24
7327 H 104.724950245413 113.94825839747381 58.3006452271772 H 0.0 **** 0.06
7328 H 105.19903425822395 115.65813367146686 58.43579311185624 H 0.0 **** 0.06
7329 H 103.5007661707781 115.22697310320024 58.11711553296672 H 0.0 **** 0.06
7330 H 104.73236063888011 114.98570259485572 56.85518141855357 H 0.0 **** 0.06
7331 C 0.24733134304227633 108.39966721946024 27.323624957852076 C 0.0 **** -0.24
7332 H -0.4829983235522093 109.0911461211608 26.901399713267267 H 0.0 **** 0.06
7333 H 0.8930035794618476 108.93392829638353 28.01996465121573 H 0.0 **** 0.06
7334 H 0.8503105603261218 107.97477867933057 26.521407205999708 H 0.0 **** 0.06
7335 H -0.2734957914667433 107.5996315608273 27.85069957607641 H 0.0 **** 0.06
7336 C 34.25334108616232 93.94828390013805 114.07998159067049 C 0.0 **** -0.24
7337 H 33.77952603371551 93.76978107092975 113.11451765457942 H 0.0 **** 0.06
7338 H 34.81912451424233 94.8792691483007 114.0390284690505 H 0.0 **** 0.06
7339 H 34.924954099472586 93.12273301740288 114.3129175984192 H 0.0 **** 0.06
7340 H 33.486485434771055 94.02217667785447 114.851850031558 H 0.0 **** 0.06
7341 C 67.07112086069424 61.87249877741334 49.22570780429132 C 0.0 **** -0.24
7342 H 68.09499139800664 62.020208043150774 49.568682483127546 H 0.0 **** 0.06
7343 H 67.03098177983821 61.00711462622235 48.56271701223479 H 0.0 **** 0.06
7344 H 66.73698474480261 62.758784456482374 48.68643765191183 H 0.0 **** 0.06
7345 H 66.4220888498208 61.70262038007121 50.08471847204176 H 0.0 **** 0.06
7346 C 71.73582031579352 5.139320326057259 58.993243197189 C 0.0 **** -0.24
7347 H 71.8041541676375 5.556995299170552 57.98899888990802 H 0.0 **** 0.06
7348 H 72.51709369409596 4.390570085422226 59.129858091148705 H 0.0 **** 0.06
7349 H 70.75847690976528 4.674042424293518 59.12723939973151 H 0.0 **** 0.06
7350 H 71.862398992135 5.93544969762101 59.72765757575941 H 0.0 **** 0.06
7351 C 53.86623130450144 107.35171427546923 34.82658227260487 C 0.0 **** -0.24
7352 H 54.15199582834408 107.71418889004056 33.83939469386989 H 0.0 **** 0.06
7353 H 54.059851251040946 106.28072310390473 34.890697874263 H 0.0 **** 0.06
7354 H 52.80458634564856 107.54067990383156 34.989187904016205 H 0.0 **** 0.06
7355 H 54.44871178388989 107.87257026626318 35.58655008996608 H 0.0 **** 0.06
7356 C 101.75648771151255 14.93646662599781 87.63592622504224 C 0.0 **** -0.24
7357 H 100.90146907960909 15.411803234742592 87.15653105529543 H 0.0 **** 0.06
7358 H 102.63348165141636 15.037138519732878 86.99698231576804 H 0.0 **** 0.06
7359 H 101.54263454567352 13.879900661003205 87.79698439352562 H 0.0 **** 0.06
7360 H 101.94862269642923 15.417450289877422 88.59560558908929 H 0.0 **** 0.06
7361 C 71.04244101633863 31.6553554094562 107.62929055065257 C 0.0 **** -0.24
7362 H 71.20731766960347 32.11087766831669 108.6058568464226 H 0.0 **** 0.06
7363 H 71.95039591940571 31.143663592627377 107.30938594278311 H 0.0 **** 0.06
7364 H 70.78548539281732 32.4294346022415 106.90640484245617 H 0.0 **** 0.06
7365 H 70.22590705632801 30.93677973965154 107.69728194896322 H 0.0 **** 0.06
7366 C 72.51040983181701 21.083216705708484 2.7836874513883174 C 0.0 **** -0.24
7367 H 73.40870437913853 21.681332778023858 2.6293837048316107 H 0.0 **** 0.06
7368 H 72.67073894459202 20.393943678941177 3.612099043234366 H 0.0 **** 0.06
7369 H 72.29114534139882 20.518301604563046 1.877271098196104 H 0.0 **** 0.06
7370 H 71.67170683588319 21.740454050933977 3.013943673425814 H 0.0 **** 0.06
7371 C 32.23429706953525 104.53957825195499 102.9657235537572 C 0.0 **** -0.24
7372 H 31.913713877811006 105.55800488797371 103.18528712646034 H 0.0 **** 0.06
7373 H 32.67368405975913 104.50468731891286 101.96864769463126 H 0.0 **** 0.06
7374 H 31.374340531835962 103.87145018518288 103.00759441950521 H 0.0 **** 0.06
7375 H 32.97460552330157 104.22646258571274 103.70117951022809 H 0.0 **** 0.06
7376 C 112.91077015901827 100.95776032561437 39.38800645404987 C 0.0 **** -0.24
7377 H 111.8427229917374 101.13054979124414 39.2528893013432 H 0.0 **** 0.06
7378 H 113.25454619707173 100.22205833748103 38.66092587152718 H 0.0 **** 0.06
7379 H 113.09323302852252 100.58670563418896 40.39682125582368 H 0.0 **** 0.06
7380 H 113.45051681256213 101.8929986676276 39.242850369453095 H 0.0 **** 0.06
7381 C 60.18482118092001 53.672579384406674 98.92488768779232 C 0.0 **** -0.24
7382 H 60.7830732758724 53.701008742589295 99.834843004667 H 0.0 **** 0.06
7383 H 60.771426541639684 53.23563285463047 98.1169982071682 H 0.0 **** 0.06
7384 H 59.89017826925314 54.68699291318313 98.65288879121017 H 0.0 **** 0.06
7385 H 59.293483065406164 53.068688408482046 99.09566713706886 H 0.0 **** 0.06
7386 C 68.94182733031246 20.795365722816353 78.16587669984966 C 0.0 **** -0.24
7387 H 68.55158594589918 21.006371345577232 79.16151259875369 H 0.0 **** 0.06
7388 H 69.15269279303449 19.72899950425588 78.07653195804124 H 0.0 **** 0.06
7389 H 69.85860869809979 21.36308956958615 78.00694870041889 H 0.0 **** 0.06
7390 H 68.2023454657713 21.08229643739832 77.4180773242229 H 0.0 **** 0.06
7391 C 48.878453276656494 70.53466801757862 37.97158250664395 C 0.0 **** -0.24
7392 H 49.747367655196136 70.34758686296907 38.60337761548756 H 0.0 **** 0.06
7393 H 48.42183367576467 71.4832689902223 38.254535340620656 H 0.0 **** 0.06
7394 H 48.15577209268562 69.72883683571314 38.101926652316465 H 0.0 **** 0.06
7395 H 49.191200604282336 70.57741126447611 36.92821311527156 H 0.0 **** 0.06
7396 C 99.10456743726058 51.721107072321956 92.78433954875791 C 0.0 **** -0.24
7397 H 98.5865397307254 50.788105238754895 92.56440915644815 H 0.0 **** 0.06
7398 H 99.33669106440107 51.765711503697986 93.84823080245306 H 0.0 **** 0.06
7399 H 98.46576882236309 52.56271926403389 92.5162690167726 H 0.0 **** 0.06
7400 H 100.02886723199782 51.76824145883219 92.20760316681242 H 0.0 **** 0.06
7401 C 34.76109053508935 51.186382866235334 21.9835563264871 C 0.0 **** -0.24
7402 H 34.11270810399071 50.4169746140254 21.564973371673087 H 0.0 **** 0.06
7403 H 35.172620680884336 51.79300486782231 21.175450287609873 H 0.0 **** 0.06
7404 H 35.573808748311535 50.71516134354623 22.53547559945369 H 0.0 **** 0.06
7405 H 34.18335017613077 51.82081669281194 22.656807716527926 H 0.0 **** 0.06
7406 C 22.875372042434037 50.94857706079722 101.18670655793082 C 0.0 **** -0.24
7407 H 22.86986330612973 51.843767815567105 101.809638172646 H 0.0 **** 0.06
7408 H 23.242485845342117 50.103738231165494 101.77005756957823 H 0.0 **** 0.06
7409 H 23.52621982789222 51.108531344715345 100.32720651054416 H 0.0 **** 0.06
7410 H 21.86271486118801 50.74034181843558 100.842084964446 H 0.0 **** 0.06
7411 C 109.97915587227283 67.64941660526591 111.2369801847573 C 0.0 **** -0.24
7412 H 110.83351494282385 66.97451192716625 111.18471345245948 H 0.0 **** 0.06
7413 H 110.19080761714616 68.45103958831373 111.94490794374508 H 0.0 **** 0.06
7414 H 109.09980412227483 67.09646133131884 111.56536174316236 H 0.0 **** 0.06
7415 H 109.79239997674622 68.0755313118691 110.25094363294087 H 0.0 **** 0.06
7416 C 20.937125491809724 93.50940887415913 1.6065870545652672 C 0.0 **** -0.24
7417 H 20.95326167525036 94.5417240443265 1.9588904437619306 H 0.0 **** 0.06
7418 H 21.084657181701402 92.83563541539954 2.449855818962078 H 0.0 **** 0.06
7419 H 21.736235507205436 93.3623548434362 0.879489472903785 H 0.0 **** 0.06
7420 H 19.975375935168316 93.30107040586176 1.1379524203282045 H 0.0 **** 0.06
7421 C 114.65100991770348 108.52889463814779 110.3302790111318 C 0.0 **** -0.24
7422 H 115.52152915470593 109.0196551636987 110.76563395058601 H 0.0 **** 0.06
7423 H 114.82261530527576 108.36072211761766 109.26696759712644 H 0.0 **** 0.06
7424 H 113.77339582777557 109.16331155401977 110.46131847169552 H 0.0 **** 0.06
7425 H 114.48597755003743 107.57343517122237 110.82835338840816 H 0.0 **** 0.06
7426 C 65.3945553640848 96.6427586968918 37.994085719002214 C 0.0 **** -0.24
7427 H 64.48914393906966 96.84412431080558 38.56787546931798 H 0.0 **** 0.06
7428 H 66.08175407457043 97.48278899887859 38.09497960621633 H 0.0 **** 0.06
7429 H 65.13530329306002 96.50920112695468 36.943323922566606 H 0.0 **** 0.06
7430 H 65.86864065844713 95.73600036455062 38.36897501040988 H 0.0 **** 0.06
7431 C 80.91235597312989 3.1861668335301516 115.188917533817 C 0.0 **** -0.24
7432 H 80.1112936529842 3.831196643884084 115.55155278228364 H 0.0 **** 0.06
7433 H 81.79971226886896 3.3276024733062286 115.80567218573384 H 0.0 **** 0.06
7434 H 81.14369285993239 3.4417746477681135 114.15431349849129 H 0.0 **** 0.06
7435 H 80.5922394941434 2.1453660134483954 115.24303480620583 H 0.0 **** 0.06
7436 C 79.75237912862076 6.860352841768119 7.346911292739861 C 0.0 **** -0.24
7437 H 79.44376503881234 7.315681714306791 8.288216527562554 H 0.0 **** 0.06
7438 H 80.3451197181082 7.5749747828411245 6.776332989922935 H 0.0 **** 0.06
7439 H 78.86894722927782 6.579347620011021 6.77292719666994 H 0.0 **** 0.06
7440 H 80.34988663646153 5.972497483405107 7.552060395181087 H 0.0 **** 0.06
7441 C 57.25577585519346 58.63885388600387 73.91334303866019 C 0.0 **** -0.24
7442 H 57.382590495558986 59.67276243981591 74.234784664596 H 0.0 **** 0.06
7443 H 56.2473499250371 58.50051590368702 73.52461145094682 H 0.0 **** 0.06
7444 H 57.414035162790725 57.97246172117839 74.76108770003673 H 0.0 **** 0.06
7445 H 57.98177136137758 58.41047805754573 73.13171865496516 H 0.0 **** 0.06
7446 C 82.85319495476313 100.7587880976651 36.64099466995242 C 0.0 **** -0.24
7447 H 83.63777127221192 100.02370298835785 36.46670945834062 H 0.0 **** 0.06
7448 H 82.2012057909591 100.41117195160444 37.4431665801811 H 0.0 **** 0.06
7449 H 82.26955055250069 100.89037526400523 35.7293864022719 H 0.0 **** 0.06
7450 H 83.30273121946587 101.71066376301002 36.925043011153775 H 0.0 **** 0.06
7451 C 98.60774981886149 28.349163795820118 48.92131477186862 C 0.0 **** -0.24
7452 H 98.06014476704257 28.908717504073906 49.679687970813035 H 0.0 **** 0.06
7453 H 99.49813938562366 28.9060100962904 48.63014790317101 H 0.0 **** 0.06
7454 H 97.97043613044985 28.200347529397078 48.04972282089386 H 0.0 **** 0.06
7455 H 98.8999774644061 27.38007580791566 49.32636422185 H 0.0 **** 0.06
7456 C 57.40550317072925 52.86853246183213 86.17856855425755 C 0.0 **** -0.24
7457 H 57.09000198542685 51.92283754243999 86.61867041216567 H 0.0 **** 0.06
7458 H 58.49510140595197 52.91945372563259 86.16850038228313 H 0.0 **** 0.06
7459 H 57.00947944771997 53.69447713325167 86.77091833839523 H 0.0 **** 0.06
7460 H 57.028126269905016 52.93836141070298 85.15873763510704 H 0.0 **** 0.06
7461 C 95.00377899089187 81.21714953698154 48.760851455121866 C 0.0 **** -0.24
7462 H 94.6174471305369 80.4925742144554 49.47843344442691 H 0.0 **** 0.06
7463 H 94.65335515805046 80.95872221823703 47.76066691339136 H 0.0 **** 0.06
7464 H 96.09343650754795 81.20018727068066 48.7797280564794 H 0.0 **** 0.06
7465 H 94.65046159048708 82.21340564123801 49.024307462039815 H 0.0 **** 0.06
7466 C 15.613429885475512 75.88926146700459 99.44516154494244 C 0.0 **** -0.24
7467 H 15.370162658910814 75.05063277703431 100.09788396290293 H 0.0 **** 0.06
7468 H 15.954300386845205 76.73172402232836 100.04821940641136 H 0.0 **** 0.06
7469 H 14.725767155041325 76.18047319353346 98.88305550855142 H 0.0 **** 0.06
7470 H 16.40167158385998 75.59392286108223 98.75405838533186 H 0.0 **** 0.06
7471 C 11.963812002878086 80.63658032561038 93.87165561507356 C 0.0 **** -0.24
7472 H 11.337292777091363 80.63718162633293 94.76333651367884 H 0.0 **** 0.06
7473 H 11.657106860306754 79.82492522056616 93.21211904655806 H 0.0 **** 0.06
7474 H 13.005782298992528 80.49680530502664 94.16076016466437 H 0.0 **** 0.06
7475 H 11.85561902518316 81.58863325136517 93.35084938318147 H 0.0 **** 0.06
7476 C 41.4452010809447 43.40779889879616 112.56504248025153 C 0.0 **** -0.24
7477 H 42.13476526065361 42.57691018127025 112.41486007823137 H 0.0 **** 0.06
7478 H 40.6565480159627 43.36531532011975 111.81380081138323 H 0.0 **** 0.06
7479 H 41.98639894968396 44.349426188148016 112.47187340475558 H 0.0 **** 0.06
7480 H 41.00462488256778 43.33830290487134 113.55996836436069 H 0.0 **** 0.06
7481 C 0.5653150819612733 91.50310349120474 10.591922450385255 C 0.0 **** -0.24
7482 H 0.03767267650934514 92.4517776760608 10.687678944449942 H 0.0 **** 0.06
7483 H 0.6019418735366742 91.21280996820933 9.542388912273324 H 0.0 **** 0.06
7484 H 0.04073893274660634 90.7372413391785 11.163858306562062 H 0.0 **** 0.06
7485 H 1.5799973874698168 91.61159600145402 10.975801054871795 H 0.0 **** 0.06
7486 C 3.8265380491287075 50.07284709725565 16.515320582515244 C 0.0 **** -0.24
7487 H 2.846989696937243 50.139032419310865 16.989892116093984 H 0.0 **** 0.06
7488 H 3.7177393221019486 49.64137312074166 15.5195617359052 H 0.0 **** 0.06
7489 H 4.479154824893266 49.44079896883977 17.116383790557734 H 0.0 **** 0.06
7490 H 4.258265806385179 51.07004710527286 16.434463931044093 H 0.0 **** 0.06
7491 C 99.24677950172375 108.44643463702766 74.76768634483602 C 0.0 **** -0.24
7492 H 98.36148317762769 108.65063565944806 74.165206524668 H 0.0 **** 0.06
7493 H 98.95242467135301 107.9339385095615 75.683037345253 H 0.0 **** 0.06
7494 H 99.74004332299893 109.3854347227325 75.01881618268419 H 0.0 **** 0.06
7495 H 99.93274643545752 107.8156204005675 74.20200857450563 H 0.0 **** 0.06
7496 C 19.782293223381593 65.60918848090094 71.20675503592597 C 0.0 **** -0.24
7497 H 19.09784421286625 66.08592865341356 71.90886396515864 H 0.0 **** 0.06
7498 H 20.265467438521604 64.75975897295972 71.68967402339042 H 0.0 **** 0.06
7499 H 20.538862816327512 66.32794622737896 70.89261448801767 H 0.0 **** 0.06
7500 H 19.225122509330507 65.26416076765432 70.33523666020146 H 0.0 **** 0.06
7501 C 11.163354779204326 58.98415490550494 87.32916798745379 C 0.0 **** -0.24
7502 H 10.7026753226437 58.72828477756836 88.28279077062177 H 0.0 **** 0.06
7503 H 12.24724218007239 58.998638532898056 87.44219392920519 H 0.0 **** 0.06
7504 H 10.818056712903257 59.967716239748185 87.01064969928058 H 0.0 **** 0.06
7505 H 10.885851705905992 58.24108031956527 86.58087939667371 H 0.0 **** 0.06
7506 C 31.572875889794247 39.47116512985275 10.458414684206758 C 0.0 **** -0.24
7507 H 31.505044700021863 39.53211960454604 9.37167317617957 H 0.0 **** 0.06
7508 H 31.372131362743858 38.44803031615015 10.778380964295536 H 0.0 **** 0.06
7509 H 30.84095490505321 40.14268689351388 10.906016833804415 H 0.0 **** 0.06
7510 H 32.574283666467956 39.76136931730724 10.775596843640017 H 0.0 **** 0.06
7511 C 87.96660340283609 69.48218875599893 66.66815802261544 C 0.0 **** -0.24
7512 H 87.06150402581824 70.08619983290842 66.72463138662297 H 0.0 **** 0.06
7513 H 88.83961795083269 70.13515443551738 66.66224193149306 H 0.0 **** 0.06
7514 H 87.95032718930821 68.8882853182032 65.75431430225713 H 0.0 **** 0.06
7515 H 88.01377234542741 68.8184847092151 67.53187013828307 H 0.0 **** 0.06
7516 C 74.74357623313776 29.307777403269824 70.02247276591545 C 0.0 **** -0.24
7517 H 75.79812189350872 29.29309316601143 70.30135354440276 H 0.0 **** 0.06
7518 H 74.14200547267764 29.572148674569462 70.89244462478572 H 0.0 **** 0.06
7519 H 74.45047868870004 28.32084904521963 69.66387156140489 H 0.0 **** 0.06
7520 H 74.58631914677261 30.04330618362644 69.23370526918075 H 0.0 **** 0.06
7521 C 36.320855864759146 92.2906709553684 105.57488654424077 C 0.0 **** -0.24
7522 H 36.83126897028172 92.29180806621096 104.611956275112 H 0.0 **** 0.06
7523 H 35.67090823218056 93.16272862494912 105.64298220302783 H 0.0 **** 0.06
7524 H 37.05839463592472 92.32381533358625 106.37771694377597 H 0.0 **** 0.06
7525 H 35.7231896781173 91.38386925904766 105.66818377081194 H 0.0 **** 0.06
7526 C 94.46481577717702 50.788113891591905 102.56013551768265 C 0.0 **** -0.24
7527 H 94.93290337233324 51.628007914499875 103.07431022847953 H 0.0 **** 0.06
7528 H 94.6259044155928 50.88469624478694 101.48687189635064 H 0.0 **** 0.06
7529 H 93.39569224674096 50.78363706227938 102.76985992681574 H 0.0 **** 0.06
7530 H 94.90791668664991 49.85605594049571 102.91151300505629 H 0.0 **** 0.06
7531 C 15.014851747565075 60.95424920625568 35.45920872949051 C 0.0 **** -0.24
7532 H 14.87848866473368 61.59661225917483 36.32916468754047 H 0.0 **** 0.06
7533 H 14.067934835680092 60.857987600482204 34.92705867905579 H 0.0 **** 0.06
7534 H 15.35062959721921 59.96896755695488 35.784150137827766 H 0.0 **** 0.06
7535 H 15.761072652850089 61.392288366298814 34.797489360511435 H 0.0 **** 0.06
7536 C 110.01504507481016 104.71193441259778 57.00323249892995 C 0.0 **** -0.24
7537 H 110.34341102050243 105.36026773837061 56.19147009367691 H 0.0 **** 0.06
7538 H 109.245531720988 105.22061388846008 57.58478731202328 H 0.0 **** 0.06
7539 H 110.86141154632878 104.47721921810404 57.64754767050806 H 0.0 **** 0.06
7540 H 109.6068927737071 103.79065496898592 56.58852489604595 H 0.0 **** 0.06
7541 C 42.560590512076374 8.580429880257952 68.30578170103348 C 0.0 **** -0.24
7542 H 41.57921662083925 8.945655737319612 68.00176203206343 H 0.0 **** 0.06
7543 H 43.240262035110504 9.422933897857547 68.42858269376825 H 0.0 **** 0.06
7544 H 42.94898508297706 7.906819735034233 67.54174008021198 H 0.0 **** 0.06
7545 H 42.47068815264879 8.044721490434128 69.25062752112439 H 0.0 **** 0.06
7546 C 45.46553560188923 64.44935919430644 89.99432249731711 C 0.0 **** -0.24
7547 H 46.28100847030129 64.40018477334799 89.27196005714757 H 0.0 **** 0.06
7548 H 44.6933455943456 63.730073610926326 89.71746961097108 H 0.0 **** 0.06
7549 H 45.04250918485337 65.45395369437348 89.99780087246273 H 0.0 **** 0.06
7550 H 45.845374338782776 64.2104222931913 90.98758189732587 H 0.0 **** 0.06
7551 C 67.85103556818518 58.056837578630336 40.36190400134773 C 0.0 **** -0.24
7552 H 67.58677452162243 57.29040175896722 39.63449786331272 H 0.0 **** 0.06
7553 H 68.68999916984048 58.6420272985701 39.98484745083326 H 0.0 **** 0.06
7554 H 68.13054953988951 57.58422956712292 41.303304627833505 H 0.0 **** 0.06
7555 H 66.99480830042539 58.71204132963783 40.52533448494282 H 0.0 **** 0.06
7556 C 60.16266919667004 88.61794761567296 114.93400581689855 C 0.0 **** -0.24
7557 H 60.99339916479778 87.98993449277197 115.25599307835667 H 0.0 **** 0.06
7558 H 60.08037660997019 89.47849643531191 115.59772277328848 H 0.0 **** 0.06
7559 H 59.237903399004324 88.04230207844819 114.96858860657788 H 0.0 **** 0.06
7560 H 60.339844074249356 88.95983350136595 113.91505509725502 H 0.0 **** 0.06
7561 C 14.349875418971152 56.73225812137339 68.67891838079608 C 0.0 **** -0.24
7562 H 13.754509423279586 57.547664744911856 68.27002495349393 H 0.0 **** 0.06
7563 H 14.892377867215998 57.08392231512991 69.55807485222488 H 0.0 **** 0.06
7564 H 15.059859027294038 56.38756452678406 67.92699872709812 H 0.0 **** 0.06
7565 H 13.693182803829018 55.909979018603956 68.9627676934785 H 0.0 **** 0.06
7566 C 62.455040176170684 43.716035788035015 78.10047059151788 C 0.0 **** -0.24
7567 H 63.281551463202035 43.1683115255172 78.55430958839298 H 0.0 **** 0.06
7568 H 62.797590314182656 44.705585580014656 77.797577578833 H 0.0 **** 0.06
7569 H 61.64645498444027 43.81694696858301 78.82368039112379 H 0.0 **** 0.06
7570 H 62.09617787274124 43.172378979867915 77.22705567016658 H 0.0 **** 0.06
7571 C 56.79280288776462 42.32763115071275 38.86465078031571 C 0.0 **** -0.24
7572 H 55.888474054363485 42.25962059543345 39.469283292417956 H 0.0 **** 0.06
7573 H 56.989407596366874 41.36402823815185 38.39445871445032 H 0.0 **** 0.06
7574 H 57.63401889304356 42.601279401354454 39.50064272962926 H 0.0 **** 0.06
7575 H 56.65689460764676 43.08703843846472 38.093932202647586 H 0.0 **** 0.06
7576 C 70.89760190126174 71.34334584947777 31.655906668238508 C 0.0 **** -0.24
7577 H 70.47999232458304 70.97205172892782 32.591301462691796 H 0.0 **** 0.06
7578 H 70.27614451394737 72.15646443213473 31.27831754609422 H 0.0 **** 0.06
7579 H 70.9241422833091 70.53587881527005 30.92417847233341 H 0.0 **** 0.06
7580 H 71.90901864438567 71.70984224732695 31.830027568005946 H 0.0 **** 0.06
7581 C 59.13635185078169 110.51175157477121 38.446828492419854 C 0.0 **** -0.24
7582 H 58.50768390703951 110.22515947704863 39.289841028482215 H 0.0 **** 0.06
7583 H 58.86715968019729 111.51524195603172 38.11718143055384 H 0.0 **** 0.06
7584 H 58.98799606705654 109.80724020312248 37.62798730812932 H 0.0 **** 0.06
7585 H 60.18242157652213 110.49709489670343 38.753213672866366 H 0.0 **** 0.06
7586 C 76.81102073183297 50.423313565276175 41.318821451891615 C 0.0 **** -0.24
7587 H 77.22762840119664 50.67712780487378 42.29345467718802 H 0.0 **** 0.06
7588 H 76.10636638843495 49.59796453949326 41.42925197400905 H 0.0 **** 0.06
7589 H 77.61569557942455 50.12742535425855 40.64577382574071 H 0.0 **** 0.06
7590 H 76.29317407038603 51.29005002356115 40.90782715358954 H 0.0 **** 0.06
7591 C 32.4856144075132 30.49917706314045 61.40210990144516 C 0.0 **** -0.24
7592 H 31.995641162314172 30.20101655333275 60.47458246223093 H 0.0 **** 0.06
7593 H 33.39128892038829 29.908015212813496 61.539739583225696 H 0.0 **** 0.06
7594 H 31.80945079761625 30.330867291660866 62.24033191846979 H 0.0 **** 0.06
7595 H 32.746134300042684 31.555900806957595 61.35174314243409 H 0.0 **** 0.06
7596 C 8.113184522084595 4.060351943922214 33.85081790958293 C 0.0 **** -0.24
7597 H 7.09647757100754 3.875782894235172 33.50408632927736 H 0.0 **** 0.06
7598 H 8.090828362777202 4.350772588871237 34.90140138166652 H 0.0 **** 0.06
7599 H 8.558172603395633 4.8606986787400785 33.26191799409969 H 0.0 **** 0.06
7600 H 8.705374873869218 3.152459465364231 33.73747166184876 H 0.0 **** 0.06
7601 C 41.112611746127186 105.26241011666639 87.50770766241475 C 0.0 **** -0.24
7602 H 41.601588296442344 104.43700188367757 88.02604711821941 H 0.0 **** 0.06
7603 H 40.39499790792206 104.86683466500119 86.78914870390737 H 0.0 **** 0.06
7604 H 41.8619394012039 105.85584334778542 86.98431432003851 H 0.0 **** 0.06
7605 H 40.59422428173255 105.88921108177988 88.2327817948478 H 0.0 **** 0.06
7606 C 105.97107946321299 34.23315801767606 1.8687027532843103 C 0.0 **** -0.24
7607 H 105.78332006980467 34.21948564750127 2.9413746112097243 H 0.0 **** 0.06
7608 H 107.04720332094868 34.24477123157149 1.6883024231036359 H 0.0 **** 0.06
7609 H 105.52023152575325 35.12428329120624 1.4314425737953087 H 0.0 **** 0.06
7610 H 105.53521128686882 33.34495577930193 1.4115613560305889 H 0.0 **** 0.06
7611 C 71.95822128332844 63.786471336206105 47.53204939919226 C 0.0 **** -0.24
7612 H 71.92288613386683 64.7282221134828 46.98463507899663 H 0.0 **** 0.06
7613 H 71.9955731491786 62.95648930946925 46.82488933612268 H 0.0 **** 0.06
7614 H 71.06708802484263 63.69481322681585 48.15335518995954 H 0.0 **** 0.06
7615 H 72.84572068393936 63.766259043281934 48.16348091207777 H 0.0 **** 0.06
7616 C 26.780296309044672 0.21357627720792038 6.625086371344366 C 0.0 **** -0.24
7617 H 26.559191689482873 0.7847512370942837 5.723620094879067 H 0.0 **** 0.06
7618 H 26.99178559430038 0.8984673512257899 7.445999905365824 H 0.0 **** 0.06
7619 H 27.64821180985527 -0.4220100141157701 6.448362504121718 H 0.0 **** 0.06
7620 H 25.922100747300846 -0.40818767467993666 6.881779904666871 H 0.0 **** 0.06
7621 C 100.28372925044863 25.03566170321858 55.279143071600714 C 0.0 **** -0.24
7622 H 100.3548073320029 23.951296005075477 55.18847581683002 H 0.0 **** 0.06
7623 H 99.50129686784011 25.40484541538973 54.614101975506145 H 0.0 **** 0.06
7624 H 101.236469784854 25.48644999117883 55.00523099552919 H 0.0 **** 0.06
7625 H 100.03884083110712 25.29887835704443 56.308171842944546 H 0.0 **** 0.06
7626 C 44.65122528882792 37.93941571745961 86.17568005744192 C 0.0 **** -0.24
7627 H 45.283054155303425 37.45424996780889 86.91979230973834 H 0.0 **** 0.06
7628 H 45.21254629025334 38.73641616069335 85.68719195423182 H 0.0 **** 0.06
7629 H 43.772302955617285 38.35952878909353 86.66394438493046 H 0.0 **** 0.06
7630 H 44.3376184870001 37.20626769007799 85.4322089238591 H 0.0 **** 0.06
7631 C 39.035081580604924 37.05681233968084 55.817275003032194 C 0.0 **** -0.24
7632 H 39.12690494844435 38.14238414202195 55.83551878631357 H 0.0 **** 0.06
7633 H 38.811333831905046 36.72700067922964 54.80245984693977 H 0.0 **** 0.06
7634 H 38.23099733287307 36.74875925447353 56.48571900416016 H 0.0 **** 0.06
7635 H 39.97313232016768 36.6076637781997 56.147061398059776 H 0.0 **** 0.06
7636 C 81.50588520663504 114.08800589373536 107.90354443136144 C 0.0 **** -0.24
7637 H 80.88336264509192 113.23541499515954 107.63365384655565 H 0.0 **** 0.06
7638 H 81.77046965074325 114.02543993797077 108.958597542711 H 0.0 **** 0.06
7639 H 80.95540774971744 115.01129869089444 107.72121897955037 H 0.0 **** 0.06
7640 H 82.41283446199978 114.08077186102568 107.29928020874155 H 0.0 **** 0.06
7641 C 79.93779463166308 87.8601890387588 4.017756659862243 C 0.0 **** -0.24
7642 H 79.1992989684017 87.1196113896157 4.323531758768979 H 0.0 **** 0.06
7643 H 80.3657250846432 88.33347478837709 4.902024568829006 H 0.0 **** 0.06
7644 H 79.45848460933996 88.61681430873203 3.396525092661591 H 0.0 **** 0.06
7645 H 80.72850695695257 87.37098328026356 3.4478124770515706 H 0.0 **** 0.06
7646 C 49.27072119783794 60.142157995938646 7.732121909664713 C 0.0 **** -0.24
7647 H 49.68017701999686 59.38694338377644 8.402340770852305 H 0.0 **** 0.06
7648 H 48.45465335510323 60.66654350645217 8.230878120295017 H 0.0 **** 0.06
7649 H 48.89493270894286 59.661107423668454 6.828795865345185 H 0.0 **** 0.06
7650 H 50.05175608468723 60.85393857013639 7.466826955357604 H 0.0 **** 0.06
7651 C 59.867210553898474 14.235189943213015 24.173993923967714 C 0.0 **** -0.24
7652 H 60.49558509171352 13.615274195710128 24.814180233361384 H 0.0 **** 0.06
7653 H 59.011184607739224 13.65386601985466 23.833170567717076 H 0.0 **** 0.06
7654 H 60.44573918460628 14.570525031062516 23.313705886491327 H 0.0 **** 0.06
7655 H 59.51934427151133 15.101191671230765 24.736900306489957 H 0.0 **** 0.06
7656 C 113.24336938200186 12.587748826486237 76.99696439852659 C 0.0 **** -0.24
7657 H 113.94383813108205 12.191354203498154 77.73248559256774 H 0.0 **** 0.06
7658 H 113.71386411279 13.407712295954859 76.45304229578988 H 0.0 **** 0.06
7659 H 112.35118319154317 12.953764241435724 77.50514357734909 H 0.0 **** 0.06
7660 H 112.96614109260081 11.79908551955441 76.29805369351743 H 0.0 **** 0.06
7661 C 13.487189225133335 61.76836778514985 100.0782754456481 C 0.0 **** -0.24
7662 H 13.598151294274743 62.33008410371701 99.15084310677875 H 0.0 **** 0.06
7663 H 12.548686642756678 61.21273760237739 100.05545732256854 H 0.0 **** 0.06
7664 H 13.481477151600984 62.45850886586811 100.9222175297871 H 0.0 **** 0.06
7665 H 14.319100116957856 61.07216922997537 100.1827951598458 H 0.0 **** 0.06
7666 C 1.26179284224348 45.18492724489171 56.60888820416227 C 0.0 **** -0.24
7667 H 0.21695839671730255 44.97011487196088 56.833439285650314 H 0.0 **** 0.06
7668 H 1.7054883005485806 44.33165571462254 56.095083146484086 H 0.0 **** 0.06
7669 H 1.8015250982551407 45.37007587738249 57.53807369669653 H 0.0 **** 0.06
7670 H 1.3233332668764035 46.066038068962015 55.97058575555846 H 0.0 **** 0.06
7671 C 65.06813392762564 58.37920714938345 83.42866454273559 C 0.0 **** -0.24
7672 H 65.08972477734605 57.729364969850934 82.55271041028959 H 0.0 **** 0.06
7673 H 65.79424740242243 59.18181481833416 83.3022498850616 H 0.0 **** 0.06
7674 H 65.31722482957662 57.798793646847 84.31684888476576 H 0.0 **** 0.06
7675 H 64.07004084564758 58.8038786352806 83.5401182619309 H 0.0 **** 0.06
7676 C 47.77885838606531 66.69455061372207 112.02367215787868 C 0.0 **** -0.24
7677 H 48.60272243086621 66.04937327337731 111.72037737345076 H 0.0 **** 0.06
7678 H 48.08554219711388 67.29761441067018 112.87823733762431 H 0.0 **** 0.06
7679 H 46.92069749213891 66.08213483461847 112.29972165468229 H 0.0 **** 0.06
7680 H 47.50673093822252 67.34947524240897 111.19547110611066 H 0.0 **** 0.06
7681 C 83.58791357487323 83.16092436439021 52.238859872997665 C 0.0 **** -0.24
7682 H 83.39441281930907 83.0549140305726 53.30619290829082 H 0.0 **** 0.06
7683 H 82.7785529636345 82.69652198739766 51.67525149512039 H 0.0 **** 0.06
7684 H 84.5307458646354 82.67470627809195 51.99116506087699 H 0.0 **** 0.06
7685 H 83.64700781093248 84.21961973889529 51.984795760204584 H 0.0 **** 0.06
7686 C 54.37001011567247 96.53552741227679 73.33738541365702 C 0.0 **** -0.24
7687 H 54.2568178984605 96.47891660236982 72.25448360559608 H 0.0 **** 0.06
7688 H 53.84800297895697 95.69738935592093 73.80102515059534 H 0.0 **** 0.06
7689 H 53.946176321869956 97.47288221367535 73.69778997655243 H 0.0 **** 0.06
7690 H 55.42792669873381 96.49257442578255 73.59433684659587 H 0.0 **** 0.06
7691 C 77.64843652217024 29.824759960325906 47.150309488341136 C 0.0 **** -0.24
7692 H 77.83766588665668 29.79497524288756 46.076986746912866 H 0.0 **** 0.06
7693 H 78.30121057313283 30.564976869669458 47.614035242452445 H 0.0 **** 0.06
7694 H 77.84744828178475 28.84337255947888 47.58117682121082 H 0.0 **** 0.06
7695 H 76.60856312856458 30.09528439342366 47.32832438338906 H 0.0 **** 0.06
7696 C 114.77425331718429 19.116556631462288 52.904130361584635 C 0.0 **** -0.24
7697 H 115.75727644916957 18.735884369145964 53.18110634754623 H 0.0 **** 0.06
7698 H 114.03224087442528 18.761788915835865 53.62040058678775 H 0.0 **** 0.06
7699 H 114.51512901533424 18.760681457998544 51.90677634506687 H 0.0 **** 0.06
7700 H 114.7918827819906 20.205816153767643 52.90750313346871 H 0.0 **** 0.06
7701 C 27.690181477723684 94.02930422343547 67.79876000815807 C 0.0 **** -0.24
7702 H 27.270590591910604 95.0339956425449 67.75842221712816 H 0.0 **** 0.06
7703 H 27.576801326922208 93.54838820734304 66.82700679866241 H 0.0 **** 0.06
7704 H 27.1650021347715 93.44577119919582 68.55530574678954 H 0.0 **** 0.06
7705 H 28.748520635139243 94.08688902261207 68.05479871872163 H 0.0 **** 0.06
7706 C 72.91716466885572 102.24884429244037 17.253982377911257 C 0.0 **** -0.24
7707 H 72.61198197004705 101.52581251790315 16.498640711070152 H 0.0 **** 0.06
7708 H 73.05307347673937 103.22509155611453 16.788205981382987 H 0.0 **** 0.06
7709 H 73.85504894436843 101.92706474043803 17.70713531382927 H 0.0 **** 0.06
7710 H 72.14719582806308 102.31703940767284 18.023684962899893 H 0.0 **** 0.06
7711 C 19.3098095690989 27.218116783728874 25.04862032285027 C 0.0 **** -0.24
7712 H 19.787758603398068 27.990263256369076 24.44633047609676 H 0.0 **** 0.06
7713 H 19.00312274481963 26.393433240013792 24.40533594452893 H 0.0 **** 0.06
7714 H 18.433773757359194 27.63640591432204 25.546114158363793 H 0.0 **** 0.06
7715 H 20.01340180692231 26.853519281327237 25.797221814891145 H 0.0 **** 0.06
7716 C 33.67139639137838 45.27085666408294 114.12520261105624 C 0.0 **** -0.24
7717 H 33.68752009337618 45.84777437219367 115.0495118130275 H 0.0 **** 0.06
7718 H 34.6806438056463 44.931623653625365 113.89073042527309 H 0.0 **** 0.06
7719 H 33.301007359457856 45.89735146986834 113.31279331279569 H 0.0 **** 0.06
7720 H 33.01629957093667 44.408668638302004 114.24635320626402 H 0.0 **** 0.06
7721 C 76.99416172366749 28.485017810764532 102.7960795108088 C 0.0 **** -0.24
7722 H 77.28571896895326 29.311280078478262 102.148439535369 H 0.0 **** 0.06
7723 H 77.70760873487406 28.39657129054831 103.61592411741321 H 0.0 **** 0.06
7724 H 76.9843246399801 27.55927418911591 102.22067396874212 H 0.0 **** 0.06
7725 H 75.99899455086246 28.672945684915817 103.19928042171097 H 0.0 **** 0.06
7726 C 77.61013189827335 14.006871900945328 59.14782653899647 C 0.0 **** -0.24
7727 H 77.00999010627629 13.150818712204739 59.45530709086768 H 0.0 **** 0.06
7728 H 78.48677281964771 14.085889322124672 59.79131588400452 H 0.0 **** 0.06
7729 H 77.01551093030247 14.916165769853535 59.23011302017042 H 0.0 **** 0.06
7730 H 77.92844763669206 13.873789476756258 58.113437461320984 H 0.0 **** 0.06
7731 C 98.99962775318258 86.39575609007761 7.612517301058139 C 0.0 **** -0.24
7732 H 98.55006696876771 85.4664717140358 7.265329893048252 H 0.0 **** 0.06
7733 H 98.32703976395871 87.22637440312104 7.397270468194769 H 0.0 **** 0.06
7734 H 99.94846782164404 86.5544200216695 7.100325131129745 H 0.0 **** 0.06
7735 H 99.17208042434032 86.33723181667443 8.687453378710781 H 0.0 **** 0.06
7736 C 18.946918566010016 72.19516083464538 64.7577276884596 C 0.0 **** -0.24
7737 H 19.454005066972012 71.29792451211023 65.11245971495887 H 0.0 **** 0.06
7738 H 19.27534792283334 73.05322269761609 65.34374946282733 H 0.0 **** 0.06
7739 H 17.869335547502658 72.07023155272304 64.86699388927232 H 0.0 **** 0.06
7740 H 19.19005173195633 72.35706414768322 63.70755906418513 H 0.0 **** 0.06
7741 C 8.750347236100339 30.37351896535975 79.39289398173966 C 0.0 **** -0.24
7742 H 9.63450950807922 30.41824620287474 80.0290457906114 H 0.0 **** 0.06
7743 H 8.299863021029381 31.365075128333444 79.32664416224068 H 0.0 **** 0.06
7744 H 8.030017248202 29.67533508588147 79.82008430738959 H 0.0 **** 0.06
7745 H 9.03621951965036 30.037260158629323 78.39586607367607 H 0.0 **** 0.06
7746 C 46.23098482624266 37.374774184975024 28.135743862772983 C 0.0 **** -0.24
7747 H 46.940458023528436 37.983144373302764 27.573845195194963 H 0.0 **** 0.06
7748 H 46.251434584513504 37.66813023531273 29.185235920043453 H 0.0 **** 0.06
7749 H 46.502974689472694 36.323858209610165 28.045996508404187 H 0.0 **** 0.06
7750 H 45.22823323807165 37.5257426604212 27.735632200350324 H 0.0 **** 0.06
7751 C 49.576873263070674 80.91970586357809 42.91839673752338 C 0.0 **** -0.24
7752 H 49.54323186487977 82.00906882396453 42.89816904546689 H 0.0 **** 0.06
7753 H 48.81179260877457 80.52085049652095 42.25161746716731 H 0.0 **** 0.06
7754 H 49.39390307995221 80.56996147652407 43.93399817569377 H 0.0 **** 0.06
7755 H 50.55834754922918 80.58113750694838 42.588031502615195 H 0.0 **** 0.06
7756 C 32.12023137910131 22.049258185367204 104.47488472658027 C 0.0 **** -0.24
7757 H 31.049632938633863 21.839710391638036 104.47166460061993 H 0.0 **** 0.06
7758 H 32.38324983711789 22.606628124486125 103.57606740717397 H 0.0 **** 0.06
7759 H 32.67335732233386 21.11118018018593 104.49690303211472 H 0.0 **** 0.06
7760 H 32.37080411443699 22.64081448254167 105.35601982622426 H 0.0 **** 0.06
7761 C 19.122298846664535 66.65470226687829 25.7156727857676 C 0.0 **** -0.24
7762 H 19.126526238600917 67.73493262525861 25.57193682591017 H 0.0 **** 0.06
7763 H 18.932509721493744 66.16149312639605 24.762096143229606 H 0.0 **** 0.06
7764 H 18.34080088470705 66.38505652150323 26.426109739579985 H 0.0 **** 0.06
7765 H 20.0901069037279 66.3367183947759 26.102812747277675 H 0.0 **** 0.06
7766 C 58.10291312305796 6.685951288161604 99.999458399199 C 0.0 **** -0.24
7767 H 57.5716253856328 5.8647511262687075 100.48146279473369 H 0.0 **** 0.06
7768 H 58.694868918216486 7.220231730482418 100.7419610908207 H 0.0 **** 0.06
7769 H 57.38188934277848 7.369236212607184 99.54812248401157 H 0.0 **** 0.06
7770 H 58.759701745025396 6.2884885339366345 99.22601894575581 H 0.0 **** 0.06
7771 C 98.84779863460767 69.52191764648222 71.6418305131957 C 0.0 **** -0.24
7772 H 99.0169791393537 70.18775220693374 70.79503661791638 H 0.0 **** 0.06
7773 H 97.90933911535892 69.78673587762972 72.1294149839251 H 0.0 **** 0.06
7774 H 99.66799942983805 69.62169507495815 72.35168654638645 H 0.0 **** 0.06
7775 H 98.79586269696021 68.49206461454622 71.28842005735349 H 0.0 **** 0.06
7776 C 114.20839937763199 8.114900275085645 30.173677235135358 C 0.0 **** -0.24
7777 H 115.26883075125818 8.3023305292203 30.34062849308617 H 0.0 **** 0.06
7778 H 114.04587884410755 7.853573649675411 29.12773648206064 H 0.0 **** 0.06
7779 H 113.6382489815637 9.012301020711732 30.417681509865304 H 0.0 **** 0.06
7780 H 113.8805188861933 7.292799760075837 30.80966989692098 H 0.0 **** 0.06
7781 C 103.08370403216782 26.208055969859117 64.40767190543367 C 0.0 **** -0.24
7782 H 103.56331830739845 25.914569801095467 65.34030497825898 H 0.0 **** 0.06
7783 H 102.47327377986198 25.38374992037336 64.03797468257152 H 0.0 **** 0.06
7784 H 103.84677684079679 26.454492041061314 63.668448134843544 H 0.0 **** 0.06
7785 H 102.4521491517869 27.079641027584955 64.58210103831082 H 0.0 **** 0.06
7786 C 35.34044980767732 70.89242192676669 5.983243591367838 C 0.0 **** -0.24
7787 H 35.01265113072566 70.34271506923537 6.865360892443794 H 0.0 **** 0.06
7788 H 35.75790948108255 70.19563022444704 5.2550853619973665 H 0.0 **** 0.06
7789 H 36.102314983833935 71.61769933710579 6.270895722405248 H 0.0 **** 0.06
7790 H 34.49058283977007 71.41343383319996 5.542083418196919 H 0.0 **** 0.06
7791 C 22.38185202838585 103.98302684241878 53.44710885334817 C 0.0 **** -0.24
7792 H 22.135748477643205 102.92264338737448 53.485805523887194 H 0.0 **** 0.06
7793 H 22.096490169503312 104.38738024990073 52.47590316477262 H 0.0 **** 0.06
7794 H 23.45353508315941 104.11311166287987 53.593924588151516 H 0.0 **** 0.06
7795 H 21.841043699502222 104.50980412880733 54.23378136270036 H 0.0 **** 0.06
7796 C 2.150020958795025 53.56590260659674 83.78593801736928 C 0.0 **** -0.24
7797 H 3.0738715323213484 53.77926788831797 84.32247586315886 H 0.0 **** 0.06
7798 H 1.3545046157217087 53.355486767794716 84.50237057334252 H 0.0 **** 0.06
7799 H 2.2962966931397943 52.700111846140025 83.1408153391469 H 0.0 **** 0.06
7800 H 1.8743901837686394 54.428289522242515 83.17974911655782 H 0.0 **** 0.06
7801 C 1.2242156870653034 96.6981369657741 107.70118277757695 C 0.0 **** -0.24
7802 H 2.115282577733627 96.0712939204127 107.66578289499219 H 0.0 **** 0.06
7803 H 1.0702661130637878 97.05306795770844 108.72104804827146 H 0.0 **** 0.06
7804 H 0.35881669553893936 96.11767148278454 107.38247770336477 H 0.0 **** 0.06
7805 H 1.3554812607296114 97.5519560475226 107.03528491201178 H 0.0 **** 0.06
7806 C 68.06702748168027 81.32065940313146 55.60788464928707 C 0.0 **** -0.24
7807 H 68.90168103489998 81.64439402236991 56.2291212030776 H 0.0 **** 0.06
7808 H 67.20845164353403 81.96790353285985 55.787448379508575 H 0.0 **** 0.06
7809 H 67.80555769657923 80.29198052053016 55.85869920025703 H 0.0 **** 0.06
7810 H 68.35159193201923 81.37751212923098 54.557533585133726 H 0.0 **** 0.06
7811 C 7.42411424658162 104.27964118255115 96.50023910420649 C 0.0 **** -0.24
7812 H 6.446077208868797 104.14288064831679 96.03757536847833 H 0.0 **** 0.06
7813 H 8.077316487772908 103.45314088036166 96.21827863972824 H 0.0 **** 0.06
7814 H 7.313090860369947 104.30050406138454 97.58464499499014 H 0.0 **** 0.06
7815 H 7.85838704754579 105.21885956522998 96.1610719111749 H 0.0 **** 0.06
7816 C 55.42812830397506 57.95644920894358 52.45389931175046 C 0.0 **** -0.24
7817 H 56.32064074769231 58.434965155845475 52.049387702418805 H 0.0 **** 0.06
7818 H 55.703169247929786 57.01148685109098 52.921004332924035 H 0.0 **** 0.06
7819 H 54.71912714457433 57.771260831511825 51.64682113141091 H 0.0 **** 0.06
7820 H 54.9704537498197 58.61093894949573 53.19613025409591 H 0.0 **** 0.06
7821 C 95.89195183887557 108.530002852532 84.70455933255991 C 0.0 **** -0.24
7822 H 95.78308610217715 107.65477333436647 85.34513883796626 H 0.0 **** 0.06
7823 H 96.47594803435014 108.26455825931279 83.82330218104346 H 0.0 **** 0.06
7824 H 96.40243889027829 109.32043246628314 85.2548570301114 H 0.0 **** 0.06
7825 H 94.90690890620702 108.87967628195284 84.39725100838467 H 0.0 **** 0.06
7826 C 2.8458108436674223 41.19727935749697 49.4978852465276 C 0.0 **** -0.24
7827 H 2.136646989378505 41.61611891597991 48.784669609850454 H 0.0 **** 0.06
7828 H 2.4462011507883403 41.294493116351504 50.50802890644175 H 0.0 **** 0.06
7829 H 3.7916009739194294 41.73435831020899 49.42765155800868 H 0.0 **** 0.06
7830 H 3.0098200556970482 40.1431787609952 49.271291916715995 H 0.0 **** 0.06
7831 C 3.545479650704067 15.000020349353093 41.092236395340194 C 0.0 **** -0.24
7832 H 3.1996545535857024 15.056495354937368 40.060648267728226 H 0.0 **** 0.06
7833 H 3.452312675968244 13.97497355966334 41.45081210671802 H 0.0 **** 0.06
7834 H 2.9411151135774105 15.659883351530965 41.71507578659437 H 0.0 **** 0.06
7835 H 4.589984323217962 15.309307939133816 41.14299852584338 H 0.0 **** 0.06
7836 C 114.07996209018779 30.32814520823615 65.35087831395288 C 0.0 **** -0.24
7837 H 114.66273184294458 29.407138184493192 65.31414828042207 H 0.0 **** 0.06
7838 H 114.06896818972953 30.790440337051365 64.36401668171806 H 0.0 **** 0.06
7839 H 114.52890676942684 31.01388488274577 66.06895163129758 H 0.0 **** 0.06
7840 H 113.05857744792304 30.099116880844463 65.65714302000431 H 0.0 **** 0.06
7841 C 74.5979744484622 93.97852785958088 25.668303305214806 C 0.0 **** -0.24
7842 H 74.03607015609703 94.19332860032586 26.576869604607566 H 0.0 **** 0.06
7843 H 74.12073612862957 93.1580154126994 25.13228513698789 H 0.0 **** 0.06
7844 H 75.61823341425867 93.69804165605154 25.92973719306616 H 0.0 **** 0.06
7845 H 74.61647527609114 94.86499212734117 25.035205910420018 H 0.0 **** 0.06
7846 C 34.447046171617075 36.26347994168856 35.01334760697332 C 0.0 **** -0.24
7847 H 34.73978140644721 36.24576195597996 33.963726395665574 H 0.0 **** 0.06
7848 H 33.40396450180418 35.9596479078391 35.104035562687336 H 0.0 **** 0.06
7849 H 34.56631472180359 37.27316763590386 35.40667233801599 H 0.0 **** 0.06
7850 H 35.076720196930665 35.5770056339577 35.57783241884107 H 0.0 **** 0.06
7851 C 49.40118919228796 39.69504395418963 111.4612675181622 C 0.0 **** -0.24
7852 H 48.97940178210621 38.89417614973707 112.06826148326104 H 0.0 **** 0.06
7853 H 49.52360909078986 40.58853682024194 112.07339938001058 H 0.0 **** 0.06
7854 H 48.73147043975639 39.91224151492254 110.62956412877057 H 0.0 **** 0.06
7855 H 50.37195863847322 39.38375201246576 111.07393609313047 H 0.0 **** 0.06
7856 C 99.86381341788996 101.74842289407474 56.952649673063945 C 0.0 **** -0.24
7857 H 99.05308709087808 101.37040254169781 57.57407455999983 H 0.0 **** 0.06
7858 H 100.81964918458164 101.52869042889796 57.42977153094827 H 0.0 **** 0.06
7859 H 99.75738278181439 102.82613583227922 56.83169985727477 H 0.0 **** 0.06
7860 H 99.82698164124582 101.26772364202259 55.975258665446006 H 0.0 **** 0.06
7861 C 4.666729872637802 113.15025100482981 42.95830842044302 C 0.0 **** -0.24
7862 H 3.9494895919578425 113.67347748687274 43.59150826367613 H 0.0 **** 0.06
7863 H 4.53969672759294 113.4692935547514 41.92375924709728 H 0.0 **** 0.06
7864 H 4.498426728854525 112.07556764349872 43.031679464687386 H 0.0 **** 0.06
7865 H 5.678992840061483 113.38304404270096 43.28941061447614 H 0.0 **** 0.06
7866 C 18.10658704245958 28.809968496109263 106.29106792414825 C 0.0 **** -0.24
7867 H 19.029999498555327 29.310374102330826 106.58256786821063 H 0.0 **** 0.06
7868 H 18.128968729246594 27.776479101018708 106.63867310244292 H 0.0 **** 0.06
7869 H 18.011553644529528 28.82651101874893 105.20541948060266 H 0.0 **** 0.06
7870 H 17.25681669179218 29.326306447129014 106.73860013148219 H 0.0 **** 0.06
7871 C 95.80227266057955 70.3597739607449 23.634682524917736 C 0.0 **** -0.24
7872 H 94.8168421171514 70.56383220926647 24.05446041413387 H 0.0 **** 0.06
7873 H 95.69114427026102 69.93084386422649 22.63908673575554 H 0.0 **** 0.06
7874 H 96.33137796339759 69.65482063670538 24.277450021746347 H 0.0 **** 0.06
7875 H 96.36887339052294 71.2884585102995 23.570728285400463 H 0.0 **** 0.06
7876 C 61.49223155363825 111.5975329316163 64.06001218430598 C 0.0 **** -0.24
7877 H 61.62413553941769 110.7414025652028 64.72137340837122 H 0.0 **** 0.06
7878 H 61.42076204153841 111.2520191307949 63.02831992378225 H 0.0 **** 0.06
7879 H 62.345602826650804 112.26860100389946 64.1607033042371 H 0.0 **** 0.06
7880 H 60.57957691040809 112.12838441887988 64.33042620264712 H 0.0 **** 0.06
7881 C 64.13960804135314 67.50295307437538 96.70203382845312 C 0.0 **** -0.24
7882 H 64.4710427335857 68.27755054708068 97.39375947304546 H 0.0 **** 0.06
7883 H 63.92218387083807 66.5897607474052 97.25685912581844 H 0.0 **** 0.06
7884 H 64.92612929978964 67.30782072963031 95.9729733104167 H 0.0 **** 0.06
7885 H 63.24061155471594 67.83838344802162 96.1854050373706 H 0.0 **** 0.06
7886 C 13.827696984823604 89.15192549828123 83.0013294752986 C 0.0 **** -0.24
7887 H 14.707717562272478 89.25759918718524 83.63700903232812 H 0.0 **** 0.06
7888 H 13.570372843743527 88.09587119550713 82.91051514963392 H 0.0 **** 0.06
7889 H 14.043048217959765 89.56020610273873 82.01440379873796 H 0.0 **** 0.06
7890 H 12.992370050250543 89.6935530632424 83.44522704410288 H 0.0 **** 0.06
7891 C 43.14792596431687 0.12191249442958885 53.58104199316932 C 0.0 **** -0.24
7892 H 43.57707328877467 -0.463115638737964 54.395111566441415 H 0.0 **** 0.06
7893 H 43.73121924525958 1.0313104804695623 53.440099634205694 H 0.0 **** 0.06
7894 H 42.118668035904534 0.3831360764083147 53.82563527440192 H 0.0 **** 0.06
7895 H 43.164118338407775 -0.46677347278214043 52.66353655823826 H 0.0 **** 0.06
7896 C 55.80894298471918 102.95173542904159 107.74505563619243 C 0.0 **** -0.24
7897 H 55.900732547173284 101.92899485370319 107.38027088984302 H 0.0 **** 0.06
7898 H 55.873146628122925 102.95620947046098 108.83357687230014 H 0.0 **** 0.06
7899 H 54.848751363413285 103.36355036171614 107.4355446940396 H 0.0 **** 0.06
7900 H 56.614961112104524 103.55888670370827 107.33192525518479 H 0.0 **** 0.06
7901 C 92.00249611316718 44.44843168983241 63.728004635704565 C 0.0 **** -0.24
7902 H 92.13981407718845 44.790011090900975 62.70208268907152 H 0.0 **** 0.06
7903 H 91.3242507426994 43.59555531259453 63.73903298714379 H 0.0 **** 0.06
7904 H 91.58210225858977 45.2556666308504 64.32735702086381 H 0.0 **** 0.06
7905 H 92.96632091200925 44.15097396939053 64.14289534355646 H 0.0 **** 0.06
7906 C 39.21283680580319 32.97288227337498 15.44927723295973 C 0.0 **** -0.24
7907 H 38.27266139029314 32.957173920547746 16.00009930970294 H 0.0 **** 0.06
7908 H 39.40674439473378 33.98519124404328 15.092609273801997 H 0.0 **** 0.06
7909 H 39.1477548581594 32.29441709033355 14.5992885102563 H 0.0 **** 0.06
7910 H 40.02433498161503 32.65718025678811 16.10487352327755 H 0.0 **** 0.06
7911 C 13.96689792092063 20.189751221103293 25.985351193757907 C 0.0 **** -0.24
7912 H 13.046856474925494 20.22823946449818 25.402914162788107 H 0.0 **** 0.06
7913 H 13.734679864232113 19.913397070360936 27.013485265378876 H 0.0 **** 0.06
7914 H 14.447202908348487 21.16844220245175 25.971009919491493 H 0.0 **** 0.06
7915 H 14.640567791904587 19.449219428788066 25.552591210548997 H 0.0 **** 0.06
7916 C 37.29766802281966 61.7592062712139 71.80880889616049 C 0.0 **** -0.24
7917 H 36.93117499658531 61.1378955525218 72.6258697243886 H 0.0 **** 0.06
7918 H 37.75281036655614 62.66274292104593 72.2149560929114 H 0.0 **** 0.06
7919 H 36.46633151128728 62.03135780497965 71.15823936115748 H 0.0 **** 0.06
7920 H 38.04053748493017 61.20344639739501 71.23593410623207 H 0.0 **** 0.06
7921 C 57.773896065338775 41.961139394224375 68.6661627081223 C 0.0 **** -0.24
7922 H 57.67250924918608 40.92202435453774 68.97897125942956 H 0.0 **** 0.06
7923 H 58.56813852282784 42.04076602854562 67.92383792884385 H 0.0 **** 0.06
7924 H 58.019814527934315 42.57885146630923 69.53040139518754 H 0.0 **** 0.06
7925 H 56.83419086523499 42.30323985690336 68.23160775101036 H 0.0 **** 0.06
7926 C 23.80037194827024 99.4763929054813 20.071519039252394 C 0.0 **** -0.24
7927 H 24.622727594011565 99.43224186270399 19.357632901833682 H 0.0 **** 0.06
7928 H 24.085143987483832 100.10370235063584 20.916197261608232 H 0.0 **** 0.06
7929 H 23.571496379673604 98.47110349347469 20.424578099644805 H 0.0 **** 0.06
7930 H 22.92035479894306 99.8993446196178 19.585384997847797 H 0.0 **** 0.06
7931 C 8.128260778870313 41.256746506123406 82.18137917304935 C 0.0 **** -0.24
7932 H 7.974310513447875 40.88006820248039 83.19324151657099 H 0.0 **** 0.06
7933 H 8.634172900611475 42.22190620736941 82.22759947581264 H 0.0 **** 0.06
7934 H 7.164830591229162 41.37419869869141 81.68666841697336 H 0.0 **** 0.06
7935 H 8.741020488208605 40.55115405266685 81.62087373311587 H 0.0 **** 0.06
7936 C 105.52613969897985 67.33792069676554 107.78293624777095 C 0.0 **** -0.24
7937 H 106.28602315779645 67.30455279469845 108.56327222012837 H 0.0 **** 0.06
7938 H 105.72266659190012 68.17943214729905 107.11992107927169 H 0.0 **** 0.06
7939 H 104.5432297002995 67.45580663627027 108.2391515435588 H 0.0 **** 0.06
7940 H 105.55232161763242 66.4096574354142 107.2113774738387 H 0.0 **** 0.06
7941 C 36.64450767326673 50.84203518731459 111.75285819715398 C 0.0 **** -0.24
7942 H 35.60933530967833 51.00000870548517 111.44942924664083 H 0.0 **** 0.06
7943 H 37.10793650595741 51.802943926039305 111.97599415475723 H 0.0 **** 0.06
7944 H 37.18932743423983 50.355550164921 110.94397483886534 H 0.0 **** 0.06
7945 H 36.67033855729659 50.210365014532925 112.64090443673732 H 0.0 **** 0.06
7946 C 51.69808860914887 107.52850997686572 93.56043203453453 C 0.0 **** -0.24
7947 H 50.79437713953604 107.44300033389344 92.95720718217996 H 0.0 **** 0.06
7948 H 52.43523630659999 108.12902163649912 93.02664123265532 H 0.0 **** 0.06
7949 H 52.10551690097128 106.53426894050664 93.7465517877472 H 0.0 **** 0.06
7950 H 51.4569678998493 108.00612927253466 94.50980769042803 H 0.0 **** 0.06
7951 C 25.880364181232807 66.18435282805342 107.2008404679534 C 0.0 **** -0.24
7952 H 25.619287031790407 65.89122363845658 106.18375808220623 H 0.0 **** 0.06
7953 H 25.55628964422573 67.20984132364185 107.37641255689856 H 0.0 **** 0.06
7954 H 26.959964799952786 66.11574701889033 107.33206266426988 H 0.0 **** 0.06
7955 H 25.38587989379252 65.5195125518382 107.9091746122251 H 0.0 **** 0.06
7956 C 80.92922783611252 13.999850745663622 16.53404120382976 C 0.0 **** -0.24
7957 H 80.34705327046738 14.78671059594302 16.053874633175298 H 0.0 **** 0.06
7958 H 80.54763661264022 13.025732094798173 16.227527636095004 H 0.0 **** 0.06
7959 H 80.84696618612227 14.097937833822527 17.61719843357787 H 0.0 **** 0.06
7960 H 81.97509748439313 14.090621280571042 16.24028797688601 H 0.0 **** 0.06
7961 C 41.93513946922838 100.96718653650805 23.540504193794334 C 0.0 **** -0.24
7962 H 41.00229706710718 100.99438667865775 22.978100682306376 H 0.0 **** 0.06
7963 H 42.31152064534647 99.94402384985275 23.56962383059394 H 0.0 **** 0.06
7964 H 41.75677111992085 101.31810204542703 24.556746078911402 H 0.0 **** 0.06
7965 H 42.67000589068953 101.61025476119977 23.05725777869941 H 0.0 **** 0.06
7966 C 103.82856927832881 79.1302270365588 73.92055301334787 C 0.0 **** -0.24
7967 H 104.33289944187868 78.31378879094751 73.40379560103474 H 0.0 **** 0.06
7968 H 104.16239834922447 80.08256933528604 73.50670287052492 H 0.0 **** 0.06
7969 H 104.06816275211884 79.09066083762565 74.9822737536528 H 0.0 **** 0.06
7970 H 102.75063622631717 79.03389575852309 73.78699692538774 H 0.0 **** 0.06
7971 C 42.99725036931861 60.55984938094045 44.70837095347903 C 0.0 **** -0.24
7972 H 42.717600848522494 61.523362753661345 44.280628319231624 H 0.0 **** 0.06
7973 H 43.982931554039595 60.27286233050003 44.34208610723687 H 0.0 **** 0.06
7974 H 42.265884910796956 59.806467952957405 44.412530367846045 H 0.0 **** 0.06
7975 H 43.020364010488095 60.63782764258508 45.79439056100185 H 0.0 **** 0.06
7976 C 71.09132901128704 41.39795815164456 23.032166754362862 C 0.0 **** -0.24
7977 H 71.96364914941617 41.93404409117801 22.658145360584996 H 0.0 **** 0.06
7978 H 70.18837578774043 41.821145936579114 22.591981414930416 H 0.0 **** 0.06
7979 H 71.0461183069628 41.49298565624912 24.118000735152123 H 0.0 **** 0.06
7980 H 71.16879562347366 40.3447587223078 22.76257738301922 H 0.0 **** 0.06
7981 C 65.89053453745375 106.48966018009196 21.17901983766683 C 0.0 **** -0.24
7982 H 65.00059531719255 106.41630465271311 20.554461859880348 H 0.0 **** 0.06
7983 H 65.65317315443237 106.15687523571125 22.189747961513064 H 0.0 **** 0.06
7984 H 66.23039353348437 107.52469710285442 21.207001192887546 H 0.0 **** 0.06
7985 H 66.6787491505766 105.85962743696558 20.765202126526674 H 0.0 **** 0.06
7986 C 16.451664988746494 27.285949621719283 3.299154856955454 C 0.0 **** -0.24
7987 H 17.13594607971553 28.065386164792642 2.9658628730741725 H 0.0 **** 0.06
7988 H 16.039514260872593 27.5554000297804 4.272775902547949 H 0.0 **** 0.06
7989 H 16.98889607117713 26.34155281411097 3.3812276225469873 H 0.0 **** 0.06
7990 H 15.64068100060593 27.18222329934889 2.578421644011229 H 0.0 **** 0.06
7991 C 16.74442696064048 32.80795728177293 43.2223070194982 C 0.0 **** -0.24
7992 H 16.473834405335737 31.974145659481394 43.870912031249944 H 0.0 **** 0.06
7993 H 17.786568714619335 32.707795359147696 42.917878463227964 H 0.0 **** 0.06
7994 H 16.611581271589216 33.74530181636189 43.761899237606656 H 0.0 **** 0.06
7995 H 16.105395597382852 32.80292536246192 42.3399992049157 H 0.0 **** 0.06
7996 C 50.62636432840873 36.733606319547505 26.6789451216423 C 0.0 **** -0.24
7997 H 50.784030334784006 37.5561712363359 25.98088998113076 H 0.0 **** 0.06
7998 H 49.55819264280103 36.53028230669031 26.7640170521056 H 0.0 **** 0.06
7999 H 51.023763117237536 37.00527182761081 27.656631973295816 H 0.0 **** 0.06
8000 H 51.1374143388872 35.84392832471082 26.311546860311353 H 0.0 **** 0.06
8001 C 31.368418463715386 49.20612925593265 89.11752953369698 C 0.0 **** -0.24
8002 H 32.033612105974214 48.708959092060724 88.41137670850472 H 0.0 **** 0.06
8003 H 30.381658123685213 48.74357435672227 89.07286815727574 H 0.0 **** 0.06
8004 H 31.287240001084342 50.26132670146955 88.85881560372738 H 0.0 **** 0.06
8005 H 31.769857670424358 49.10766554078093 90.12589702063637 H 0.0 **** 0.06
8006 C 58.77848574890521 4.781009002835674 108.25567037209237 C 0.0 **** -0.24
8007 H 58.62226835556227 5.174743077813417 109.26050031583333 H 0.0 **** 0.06
8008 H 58.038655532863416 4.007822689331263 108.04935578444162 H 0.0 **** 0.06
8009 H 59.77942854608736 4.355752774258221 108.18543372967287 H 0.0 **** 0.06
8010 H 58.67420811179731 5.587638259784256 107.53054284765545 H 0.0 **** 0.06
8011 C 73.19747969560086 85.17231504884256 60.98923936441166 C 0.0 **** -0.24
8012 H 73.40593919760846 84.16558068320421 60.6286120696482 H 0.0 **** 0.06
8013 H 73.50633180066217 85.25663451422196 62.03055924210044 H 0.0 **** 0.06
8014 H 72.1291193893565 85.37219824569911 60.90882480507007 H 0.0 **** 0.06
8015 H 73.74832848730068 85.89572092901557 60.386912893541776 H 0.0 **** 0.06
8016 C 95.26757497121375 114.69884935630432 37.67862835094506 C 0.0 **** -0.24
8017 H 94.64574538239867 114.2734472116041 36.89085139061643 H 0.0 **** 0.06
8018 H 96.11979908121577 114.04452785567133 37.861502572188115 H 0.0 **** 0.06
8019 H 94.68074730128187 114.79633119721996 38.59166892894615 H 0.0 **** 0.06
8020 H 95.62313471441591 115.68181996824973 37.369184306482225 H 0.0 **** 0.06
8021 C 96.25071360346624 94.44694261068386 94.51509719712567 C 0.0 **** -0.24
8022 H 96.81476219684271 94.08965096829046 95.37725581297764 H 0.0 **** 0.06
8023 H 95.59651794293586 95.2638239796599 94.82114697763126 H 0.0 **** 0.06
8024 H 95.64910813262748 93.6322670626854 94.11138542883776 H 0.0 **** 0.06
8025 H 96.94155253033472 94.80168655946291 93.75038035398984 H 0.0 **** 0.06
8026 C 26.89396841757815 65.75388587470133 34.46622977676395 C 0.0 **** -0.24
8027 H 27.79603605240652 66.3270124795369 34.68031720571196 H 0.0 **** 0.06
8028 H 27.077558885535325 65.08849355569461 33.62208156155697 H 0.0 **** 0.06
8029 H 26.079386389986723 66.43582756818796 34.221192573013724 H 0.0 **** 0.06
8030 H 26.62235033139092 65.16450769426575 35.34211364002789 H 0.0 **** 0.06
8031 C 80.91529376564027 86.34138721554706 45.05887515852331 C 0.0 **** -0.24
8032 H 80.32874294689027 85.57118931192724 45.56079441606067 H 0.0 **** 0.06
8033 H 80.25482312246272 87.14531199077466 44.733297114107955 H 0.0 **** 0.06
8034 H 81.41746169078323 85.90826673279992 44.19401704518077 H 0.0 **** 0.06
8035 H 81.65919116799022 86.73888999988094 45.74951599205093 H 0.0 **** 0.06
8036 C 114.42662820377075 92.51307541078631 27.889900976487624 C 0.0 **** -0.24
8037 H 114.04296128738804 93.41510086921244 28.366557373545348 H 0.0 **** 0.06
8038 H 114.4753867938359 92.66533773478307 26.81114502381965 H 0.0 **** 0.06
8039 H 113.76346358827544 91.6763790385071 28.10997695809364 H 0.0 **** 0.06
8040 H 115.42395505183805 92.2959080394705 28.271411138321355 H 0.0 **** 0.06
8041 C 87.57565494380134 59.18083439556814 106.10781281413698 C 0.0 **** -0.24
8042 H 87.9412025882101 58.15707292744243 106.03078746640286 H 0.0 **** 0.06
8043 H 88.15044396343768 59.71563434696054 106.8631704009641 H 0.0 **** 0.06
8044 H 86.52268715211903 59.17099505583495 106.38997693520889 H 0.0 **** 0.06
8045 H 87.688271545502 59.67978665700183 105.14487162131823 H 0.0 **** 0.06
8046 C 35.04743574877938 99.17827411898658 77.44141011308702 C 0.0 **** -0.24
8047 H 35.93237651593412 99.80574223271874 77.55210435472299 H 0.0 **** 0.06
8048 H 34.66411033375525 99.26846745473317 76.42517277566608 H 0.0 **** 0.06
8049 H 34.282950610163454 99.5016815950141 78.14914080645627 H 0.0 **** 0.06
8050 H 35.31160585208687 98.13984889435889 77.64074588259905 H 0.0 **** 0.06
8051 C 100.70437618288832 26.312934124167953 13.392608902328448 C 0.0 **** -0.24
8052 H 100.19607382892252 25.618031462636253 14.061329757211809 H 0.0 **** 0.06
8053 H 100.31487975643262 26.193903628528574 12.381796950784633 H 0.0 **** 0.06
8054 H 101.77416782966168 26.105568444946584 13.398070272751738 H 0.0 **** 0.06
8055 H 100.53113442562119 27.334790863857307 13.731007611240472 H 0.0 **** 0.06
8056 C 44.16462971887407 10.965475081386558 7.59674483366112 C 0.0 **** -0.24
8057 H 44.9047953697428 10.379855982881395 8.141933452851049 H 0.0 **** 0.06
8058 H 43.18288826218949 10.504876894927406 7.709995070856763 H 0.0 **** 0.06
8059 H 44.43249472144714 10.99640824513375 6.54116538674802 H 0.0 **** 0.06
8060 H 44.138797877851744 11.97940010928022 7.994856949616462 H 0.0 **** 0.06
8061 C 1.000278680368524 78.22388246227237 32.039261136387836 C 0.0 **** -0.24
8062 H 0.5264580422190761 79.08412663310617 31.566905870136054 H 0.0 **** 0.06
8063 H 1.3419613734077984 78.50025163237562 33.03703796833781 H 0.0 **** 0.06
8064 H 1.851211375372941 77.9025411452031 31.43895884728539 H 0.0 **** 0.06
8065 H 0.2805264175410116 77.40832211763856 32.11415170767984 H 0.0 **** 0.06
8066 C 75.28617978164337 83.08306641730474 58.85626141239338 C 0.0 **** -0.24
8067 H 75.63350794209623 82.58886167664872 57.948561893448115 H 0.0 **** 0.06
8068 H 76.123458021543 83.20687308178428 59.54424230070465 H 0.0 **** 0.06
8069 H 74.51453247949911 82.47517840047809 59.32771565723776 H 0.0 **** 0.06
8070 H 74.87574545302002 84.06019208519402 58.603394664302414 H 0.0 **** 0.06
8071 C 104.0937817064729 81.37954271417561 15.024058871726169 C 0.0 **** -0.24
8072 H 104.26361562045413 80.30378090472757 15.040350794726379 H 0.0 **** 0.06
8073 H 103.51303340548031 81.6693983804796 15.900314379520921 H 0.0 **** 0.06
8074 H 103.54714791556609 81.64706739876715 14.120440297446123 H 0.0 **** 0.06
8075 H 105.05222295878639 81.89790278006873 15.035579478602898 H 0.0 **** 0.06
8076 C 28.853914571340226 2.3976526889752847 39.42052047080164 C 0.0 **** -0.24
8077 H 28.84907597920173 3.006524168699144 40.324854861298604 H 0.0 **** 0.06
8078 H 28.992508207564555 1.3506526442745894 39.68918612895173 H 0.0 **** 0.06
8079 H 29.670801175859253 2.7179292977377827 38.77278534012845 H 0.0 **** 0.06
8080 H 27.905555871297878 2.517357418185327 38.896790480699096 H 0.0 **** 0.06
8081 C 52.06837657636544 10.761453812613606 69.52445482985644 C 0.0 **** -0.24
8082 H 51.23952613347751 11.454297477063363 69.37769250376971 H 0.0 **** 0.06
8083 H 51.791344249487565 10.01566845355542 70.26865289935219 H 0.0 **** 0.06
8084 H 52.9446634119019 11.311240980657661 69.86872803246615 H 0.0 **** 0.06
8085 H 52.29875933963922 10.26583890504229 68.5807794279188 H 0.0 **** 0.06
8086 C 35.86314651095006 69.73040855982003 89.11295064849719 C 0.0 **** -0.24
8087 H 35.625857193599984 68.95031914822124 88.39026414098987 H 0.0 **** 0.06
8088 H 35.14194919308579 70.54330366363956 89.02097453277321 H 0.0 **** 0.06
8089 H 36.865711734531544 70.11105827324278 88.9199162570892 H 0.0 **** 0.06
8090 H 35.819381396082065 69.31785896459365 90.12093279243209 H 0.0 **** 0.06
8091 C 70.01925954860273 83.84861503281911 59.16325416037631 C 0.0 **** -0.24
8092 H 69.07975994256257 84.37060540669711 58.98379093118416 H 0.0 **** 0.06
8093 H 70.7757667986403 84.2125944294304 58.46798634283624 H 0.0 **** 0.06
8094 H 69.87344388047289 82.77853839236138 59.01638579450861 H 0.0 **** 0.06
8095 H 70.34657790690929 84.03354851762509 60.186301981740314 H 0.0 **** 0.06
8096 C 54.74618803901464 70.37996356323428 90.67580176853693 C 0.0 **** -0.24
8097 H 54.64509429606878 70.44898875934783 91.75965379880472 H 0.0 **** 0.06
8098 H 55.53429912161687 69.6682210128729 90.42982611285487 H 0.0 **** 0.06
8099 H 55.00154502483994 71.35959045263472 90.27248986776868 H 0.0 **** 0.06
8100 H 53.80388514519271 70.04262527299407 90.24436964770273 H 0.0 **** 0.06
8101 C 5.183655256931047 100.83181383813488 38.20855677345895 C 0.0 **** -0.24
8102 H 5.415427191025799 100.71077935476089 39.266787365147366 H 0.0 **** 0.06
8103 H 5.941607257805003 101.4600077166246 37.74099955956473 H 0.0 **** 0.06
8104 H 4.20519225391871 101.30089697224724 38.10325367399378 H 0.0 **** 0.06
8105 H 5.171641477631681 99.8546524690012 37.72611728388546 H 0.0 **** 0.06
8106 C 100.93242676207284 95.26626219685886 17.167829382029698 C 0.0 **** -0.24
8107 H 101.71280755697757 95.53794192559712 16.456824102761896 H 0.0 **** 0.06
8108 H 100.48138042187061 94.31982112928213 16.868049273855497 H 0.0 **** 0.06
8109 H 100.169639657538 96.04452418317453 17.18428085953239 H 0.0 **** 0.06
8110 H 101.36726404100709 95.1630262343507 18.162049899546588 H 0.0 **** 0.06
8111 C 100.19735541237014 72.46144490073341 48.4923372392103 C 0.0 **** -0.24
8112 H 99.6917979293888 71.53598169580155 48.21736993627295 H 0.0 **** 0.06
8113 H 99.50061214649276 73.11333653597778 49.02069673364291 H 0.0 **** 0.06
8114 H 100.55229146232281 72.96303209786396 47.59174450738551 H 0.0 **** 0.06
8115 H 101.0449674274364 72.23436199867136 49.13927526298136 H 0.0 **** 0.06
8116 C 25.304526238614358 74.77023117464745 55.77208100045474 C 0.0 **** -0.24
8117 H 25.62020537496636 74.83955663289026 56.81425390305709 H 0.0 **** 0.06
8118 H 25.112487904934284 73.72705236094674 55.5206494840173 H 0.0 **** 0.06
8119 H 26.09149161675532 75.16190367354562 55.1276217710749 H 0.0 **** 0.06
8120 H 24.394574467485782 75.35270248109333 55.62947146982794 H 0.0 **** 0.06
8121 C 6.802505449481828 69.8910624395707 45.17768023222709 C 0.0 **** -0.24
8122 H 7.223476352143692 68.88665191258826 45.130812811590374 H 0.0 **** 0.06
8123 H 6.076910682266188 70.0190144179603 44.37498911712373 H 0.0 **** 0.06
8124 H 7.601179624151655 70.62474545625037 45.06594223786169 H 0.0 **** 0.06
8125 H 6.310274543895474 70.03461666805225 46.14001776335124 H 0.0 **** 0.06
8126 C 29.680958788995262 85.79120072658935 80.25824285672417 C 0.0 **** -0.24
8127 H 30.029591327783564 86.82185005855393 80.18326328894418 H 0.0 **** 0.06
8128 H 30.3822885706345 85.131727790789 79.74716504381867 H 0.0 **** 0.06
8129 H 28.697599188833912 85.70628693321737 79.79518332640448 H 0.0 **** 0.06
8130 H 29.61408360732461 85.50788095026326 81.30886514564021 H 0.0 **** 0.06
8131 C 98.14078794025517 57.85032643138358 74.264474933945 C 0.0 **** -0.24
8132 H 97.3304177178876 58.40292235143592 74.73929107986291 H 0.0 **** 0.06
8133 H 98.50528292937874 57.0814637780655 74.94706066574372 H 0.0 **** 0.06
8134 H 98.95375974866333 58.53499149561428 74.02104282679295 H 0.0 **** 0.06
8135 H 97.77495843857874 57.381854828018405 73.35112907816332 H 0.0 **** 0.06
8136 C 78.85977166367934 76.2009692057656 18.960924888256994 C 0.0 **** -0.24
8137 H 79.35351022667214 77.17189482383426 18.95499706049537 H 0.0 **** 0.06
8138 H 77.77953754245613 76.34241547216664 19.012730642277447 H 0.0 **** 0.06
8139 H 79.1940323367316 75.62869498088145 19.82670234678276 H 0.0 **** 0.06
8140 H 79.11181992400736 75.65930582698633 18.04855265958592 H 0.0 **** 0.06
8141 C 96.06327152396528 103.29236199468734 67.37259411019045 C 0.0 **** -0.24
8142 H 95.8530861756858 104.33875328257596 67.59198393981961 H 0.0 **** 0.06
8143 H 95.14905418236125 102.70731174441337 67.48067049616218 H 0.0 **** 0.06
8144 H 96.81737554262065 102.92039500506834 68.0667700877877 H 0.0 **** 0.06
8145 H 96.43370125723897 103.2028411962279 66.35193239845744 H 0.0 **** 0.06
8146 C 83.50535536315554 86.68546792817386 48.3984840103577 C 0.0 **** -0.24
8147 H 84.0928480402041 86.06884993531975 49.0785547020727 H 0.0 **** 0.06
8148 H 83.29332300562898 86.12294035595824 47.48881725341714 H 0.0 **** 0.06
8149 H 84.06657222862124 87.58551988346488 48.146865892953564 H 0.0 **** 0.06
8150 H 82.56763816981936 86.96549095266181 48.879932040497636 H 0.0 **** 0.06
8151 C 4.149820608802186 80.50229563431223 15.793461407688369 C 0.0 **** -0.24
8152 H 5.1659412405441145 80.64594176342587 16.16089195572681 H 0.0 **** 0.06
8153 H 3.4443868983000705 80.6342692717571 16.61393675813349 H 0.0 **** 0.06
8154 H 4.048729642428675 79.49632759815583 15.385910807814184 H 0.0 **** 0.06
8155 H 3.9405692720442094 81.23327613748079 15.012412152356092 H 0.0 **** 0.06
8156 C 84.60707378738638 87.24724360650502 83.57223915146317 C 0.0 **** -0.24
8157 H 84.1295108499377 86.27941551715783 83.41687174971264 H 0.0 **** 0.06
8158 H 84.60721404419849 87.80683104977145 82.6369085035537 H 0.0 **** 0.06
8159 H 85.63243794579131 87.09584097254574 83.90707947628117 H 0.0 **** 0.06
8160 H 84.05618266154983 87.80534784158212 84.3298091008649 H 0.0 **** 0.06
8161 C 69.00902489015091 56.32793690031957 94.1601339299131 C 0.0 **** -0.24
8162 H 68.14682009099647 55.805491124635466 93.74609790351812 H 0.0 **** 0.06
8163 H 69.92513736224906 55.86271296824202 93.79598259195566 H 0.0 **** 0.06
8164 H 68.97967471265557 56.270114965406066 95.24873523926924 H 0.0 **** 0.06
8165 H 68.9842945382649 57.37293843171355 93.85137228093929 H 0.0 **** 0.06
8166 C 0.5358881812205993 12.75084344169909 101.40070093440605 C 0.0 **** -0.24
8167 H -0.2519297071817732 13.488885812231985 101.55639317407639 H 0.0 **** 0.06
8168 H 1.4511342889798726 13.257820313416403 101.09436844704429 H 0.0 **** 0.06
8169 H 0.22912084762870677 12.051763048094045 100.62298508952823 H 0.0 **** 0.06
8170 H 0.7133348808762321 12.207508482051338 102.32825755550515 H 0.0 **** 0.06
8171 C 13.94862335748519 60.19161835927096 5.815673640623743 C 0.0 **** -0.24
8172 H 14.973135594177393 60.55206545510103 5.725623117320367 H 0.0 **** 0.06
8173 H 13.806651669217416 59.74369423093414 6.800096654483596 H 0.0 **** 0.06
8174 H 13.75719999928171 59.444371137030245 5.0453378307165195 H 0.0 **** 0.06
8175 H 13.257906644162716 61.025788266166856 5.692874873718495 H 0.0 **** 0.06
8176 C 30.3571715494515 24.706245555784278 15.955259086274282 C 0.0 **** -0.24
8177 H 29.296474259635488 24.95579980629452 15.98426761886455 H 0.0 **** 0.06
8178 H 30.744525100418763 24.654045638525133 16.973171653952875 H 0.0 **** 0.06
8179 H 30.895132364266928 25.474216346277785 15.399586005829264 H 0.0 **** 0.06
8180 H 30.489639198646252 23.742338014081838 15.465879870837881 H 0.0 **** 0.06
8181 C 102.73881464405446 37.1175052415314 1.2293062013732197 C 0.0 **** -0.24
8182 H 102.88913938161417 36.21083258397376 0.6422382431058509 H 0.0 **** 0.06
8183 H 101.98659141916141 36.93242411116662 1.996407742301642 H 0.0 **** 0.06
8184 H 102.40202503319321 37.92102656724732 0.5757461934844059 H 0.0 **** 0.06
8185 H 103.67832864251136 37.40252555233269 1.702857072244683 H 0.0 **** 0.06
8186 C 97.81933204083487 18.01137620344511 32.38195319398582 C 0.0 **** -0.24
8187 H 96.75721919268871 18.001354761173104 32.13495626171263 H 0.0 **** 0.06
8188 H 98.09775995594057 17.056662894946896 32.82646175706702 H 0.0 **** 0.06
8189 H 98.01944440274657 18.81455523626869 33.09086716275493 H 0.0 **** 0.06
8190 H 98.4015138507583 18.17434575304489 31.47408981678433 H 0.0 **** 0.06
8191 C 86.97827199748932 33.486975590949214 10.058728577224283 C 0.0 **** -0.24
8192 H 87.30052809209229 34.51920228403321 9.923867222235426 H 0.0 **** 0.06
8193 H 86.13215117817634 33.457758405205254 10.746554551073729 H 0.0 **** 0.06
8194 H 87.79980503851328 32.90040114031521 10.468807077476328 H 0.0 **** 0.06
8195 H 86.67891233335439 33.07161146378965 9.096681819876295 H 0.0 **** 0.06
8196 C 24.00239228286179 78.11846305685188 98.40035204905224 C 0.0 **** -0.24
8197 H 24.42700755902601 79.1223436872102 98.39565087563989 H 0.0 **** 0.06
8198 H 23.07263232859563 78.12014871712178 98.96987481461817 H 0.0 **** 0.06
8199 H 24.7090805987458 77.42710197351023 98.85984966044592 H 0.0 **** 0.06
8200 H 23.80077542116871 77.8052550464106 97.3760157115395 H 0.0 **** 0.06
8201 C 115.5729271290381 40.777603201584064 58.00946556049604 C 0.0 **** -0.24
8202 H 115.80419889362642 41.63632072411215 58.63969261450637 H 0.0 **** 0.06
8203 H 114.67714426584709 40.2814790800152 58.384008634870895 H 0.0 **** 0.06
8204 H 116.40966961631511 40.07765459137094 58.027921946615265 H 0.0 **** 0.06
8205 H 115.40339264159766 41.112566617740505 56.98615665229951 H 0.0 **** 0.06
8206 C 105.91963601771165 93.38677947894621 97.03763708561829 C 0.0 **** -0.24
8207 H 106.79812237916158 93.01843645040327 96.50831048349545 H 0.0 **** 0.06
8208 H 105.91948878227828 92.99696834966508 98.0562149632317 H 0.0 **** 0.06
8209 H 105.01943671729393 93.0543961421871 96.52096690738136 H 0.0 **** 0.06
8210 H 105.9425369735272 94.47575838625306 97.06435755640791 H 0.0 **** 0.06
8211 C 88.26784060094832 89.47393148856473 25.117609355226683 C 0.0 **** -0.24
8212 H 88.56169252705007 90.24762445248686 24.407947588051577 H 0.0 **** 0.06
8213 H 87.22922749851898 89.62544664134587 25.41030970223862 H 0.0 **** 0.06
8214 H 88.90617218661322 89.52831853690805 25.99940036386186 H 0.0 **** 0.06
8215 H 88.37568710739674 88.49450594318137 24.65137840803076 H 0.0 **** 0.06
8216 C 67.9068656735445 103.68876698513941 65.12267962342071 C 0.0 **** -0.24
8217 H 67.12026442049414 103.95447384669059 65.82963078474589 H 0.0 **** 0.06
8218 H 67.49082313660779 103.64703400865672 64.11556712847849 H 0.0 **** 0.06
8219 H 68.31723361712315 102.71353477357279 65.38622446951796 H 0.0 **** 0.06
8220 H 68.69727955794467 104.43756040907897 65.15997280989582 H 0.0 **** 0.06
8221 C 107.78959052780613 62.02131843556096 8.0831069735964 C 0.0 **** -0.24
8222 H 107.56309864202947 62.41510437589136 7.092426098324026 H 0.0 **** 0.06
8223 H 107.33908958008686 61.03462821687748 8.19274221798878 H 0.0 **** 0.06
8224 H 107.38554986155572 62.69232769444247 8.841348549485616 H 0.0 **** 0.06
8225 H 108.86961309078939 61.94251386816332 8.205211958634962 H 0.0 **** 0.06
8226 C 80.07239337494332 37.309957902911826 73.2055175722966 C 0.0 **** -0.24
8227 H 80.45400080960479 36.37476564199649 73.61405116766639 H 0.0 **** 0.06
8228 H 78.99159337991253 37.35031857336673 73.33802755856135 H 0.0 **** 0.06
8229 H 80.31153621665624 37.365730063265325 72.1433712822151 H 0.0 **** 0.06
8230 H 80.53446180066243 38.14965720993321 73.72538913473211 H 0.0 **** 0.06
8231 C 48.64191539152 24.247417580462475 13.771533077806577 C 0.0 **** -0.24
8232 H 49.236996149982986 25.12985177543262 13.53575064894839 H 0.0 **** 0.06
8233 H 49.165976002121795 23.643933435090112 14.512838636832715 H 0.0 **** 0.06
8234 H 48.48812830395872 23.659696450934153 12.8665402831544 H 0.0 **** 0.06
8235 H 47.67617623007811 24.556975987576422 14.172112740967822 H 0.0 **** 0.06
8236 C 0.8792696305241918 40.82564777978669 84.703203137705 C 0.0 **** -0.24
8237 H -0.1236837086833873 40.41756443362908 84.82606527284133 H 0.0 **** 0.06
8238 H 0.812047657548959 41.87997101311947 84.43264565911096 H 0.0 **** 0.06
8239 H 1.3989709312206173 40.280587958422984 83.91535931401461 H 0.0 **** 0.06
8240 H 1.4297976488442714 40.72533566132148 85.63824853615472 H 0.0 **** 0.06
8241 C 106.49242662802348 15.092293111784752 45.95018235843682 C 0.0 **** -0.24
8242 H 106.80311232517607 14.057098079892178 46.09058956749678 H 0.0 **** 0.06
8243 H 107.27621814489962 15.637969010588943 45.422828260540655 H 0.0 **** 0.06
8244 H 106.32054485801547 15.553623999044504 46.92240609529159 H 0.0 **** 0.06
8245 H 105.5727531216826 15.119798244826839 45.36590361148404 H 0.0 **** 0.06
8246 C 40.79481507187754 85.44907328707545 77.97204746680656 C 0.0 **** -0.24
8247 H 41.06457384667263 84.39525323034712 78.04184037371107 H 0.0 **** 0.06
8248 H 40.5082895611705 85.6825102141868 76.94603822994904 H 0.0 **** 0.06
8249 H 41.647482511833005 86.06286988334122 78.26063102591607 H 0.0 **** 0.06
8250 H 39.956242920644 85.6536087209951 78.63805015878681 H 0.0 **** 0.06
8251 C 84.73138846058708 96.66350302445326 57.48362243492733 C 0.0 **** -0.24
8252 H 85.45495736928576 97.1551672678721 58.13335147244902 H 0.0 **** 0.06
8253 H 85.07562150318142 95.65289918053752 57.25677398846835 H 0.0 **** 0.06
8254 H 84.63157778969024 97.2294117072887 56.55785858894802 H 0.0 **** 0.06
8255 H 83.76575130312631 96.61472842131607 57.986059919038496 H 0.0 **** 0.06
8256 C 106.07196966685024 43.71434618675033 18.386241786540324 C 0.0 **** -0.24
8257 H 105.18068364159296 43.79072478323479 17.76260475690458 H 0.0 **** 0.06
8258 H 106.50941918936758 44.70494172530758 18.51469803398703 H 0.0 **** 0.06
8259 H 106.79589360275531 43.056182268488925 17.905762914970467 H 0.0 **** 0.06
8260 H 105.8002857893581 43.30710288518854 19.359256289158964 H 0.0 **** 0.06
8261 C 7.385278869473751 91.12838134003445 0.5995413812329673 C 0.0 **** -0.24
8262 H 7.977195521157171 91.76716759959763 -0.05604564743285323 H 0.0 **** 0.06
8263 H 8.05071234708717 90.54644526861797 1.2370507823696926 H 0.0 **** 0.06
8264 H 6.7767552352488565 90.45387206819571 -0.004198527573720412 H 0.0 **** 0.06
8265 H 6.735722781691919 91.74756123221555 1.2188779202334672 H 0.0 **** 0.06
8266 C 38.899522108009876 114.76495872926027 77.80700626359635 C 0.0 **** -0.24
8267 H 38.101893942723564 114.21731996876548 78.30915630272949 H 0.0 **** 0.06
8268 H 39.772375019098604 114.11974710188103 77.70088189666203 H 0.0 **** 0.06
8269 H 39.16474328598926 115.64149914052331 78.3984309908275 H 0.0 **** 0.06
8270 H 38.558264474177776 115.08078288962221 76.82100682245422 H 0.0 **** 0.06
8271 C 9.444240945491003 75.9685822836658 78.54616425575738 C 0.0 **** -0.24
8272 H 10.049159254775134 76.84135578110477 78.30048598940294 H 0.0 **** 0.06
8273 H 8.831948883648408 75.69680557851359 77.68486027331663 H 0.0 **** 0.06
8274 H 8.79856748220351 76.20039895799601 79.39260167508533 H 0.0 **** 0.06
8275 H 10.09774844149041 75.13520241510736 78.805138256906 H 0.0 **** 0.06
8276 C 104.53425861850988 17.972254365641756 32.20099951580579 C 0.0 **** -0.24
8277 H 103.72290317358474 17.469558781075236 32.72599090705157 H 0.0 **** 0.06
8278 H 104.56846053109282 17.625038529419903 31.167958862289737 H 0.0 **** 0.06
8279 H 105.48056191987193 17.74434200143782 32.69225770461878 H 0.0 **** 0.06
8280 H 104.3659147133688 19.048965611326206 32.21745450382542 H 0.0 **** 0.06
8281 C 101.34728367336842 85.82016702267167 110.13035153723008 C 0.0 **** -0.24
8282 H 100.85276120663708 84.84997474162483 110.18943699108962 H 0.0 **** 0.06
8283 H 100.79267108377869 86.54653712763482 110.72609562230991 H 0.0 **** 0.06
8284 H 101.3779933837532 86.15014587558643 109.09190682045671 H 0.0 **** 0.06
8285 H 102.36295631603349 85.7336406095948 110.51577959820766 H 0.0 **** 0.06
8286 C 85.3903260940383 6.7560824287521655 47.019294850016706 C 0.0 **** -0.24
8287 H 86.10510338558754 6.210046294287054 46.403864511788 H 0.0 **** 0.06
8288 H 84.37766283886299 6.441761675550936 46.76627081677272 H 0.0 **** 0.06
8289 H 85.49521835429465 7.825787583856709 46.83570536581496 H 0.0 **** 0.06
8290 H 85.58318262894693 6.547427211219713 48.07204646518653 H 0.0 **** 0.06
8291 C 16.277935049646544 48.26847070356687 58.434459425527024 C 0.0 **** -0.24
8292 H 16.196697378867356 47.90622589143531 59.45901526042371 H 0.0 **** 0.06
8293 H 16.56246715218319 49.32115015676029 58.44362821234384 H 0.0 **** 0.06
8294 H 15.316573784222385 48.15548107095614 57.93247689232635 H 0.0 **** 0.06
8295 H 17.034826455363344 47.691955074254075 57.9040420449067 H 0.0 **** 0.06
8296 C 60.252772149139275 88.95898204419908 107.4882156518368 C 0.0 **** -0.24
8297 H 59.187218263500625 89.17926426083059 107.54940545143857 H 0.0 **** 0.06
8298 H 60.724679516482325 89.17891838397222 108.44676043331586 H 0.0 **** 0.06
8299 H 60.70653165618202 89.57220252370226 106.7096891565307 H 0.0 **** 0.06
8300 H 60.3928673571244 87.90439759476054 107.24781055777353 H 0.0 **** 0.06
8301 C 113.39475935466336 110.9533377683617 24.310136367750687 C 0.0 **** -0.24
8302 H 112.75744253255759 111.20565464165466 25.158209520577145 H 0.0 **** 0.06
8303 H 113.12742036736361 109.96464233245206 23.93733649195606 H 0.0 **** 0.06
8304 H 114.43743820440373 110.95332309204596 24.62672810929567 H 0.0 **** 0.06
8305 H 113.25486343023147 111.6902527999014 23.51937603100319 H 0.0 **** 0.06
8306 C 19.15035244463583 5.719168184153226 71.83940441053832 C 0.0 **** -0.24
8307 H 19.38971441322512 6.037200531761684 70.82515849711284 H 0.0 **** 0.06
8308 H 18.764503098375613 4.699943076184896 71.81895896454422 H 0.0 **** 0.06
8309 H 18.39616255705201 6.385018149394886 72.26029045173853 H 0.0 **** 0.06
8310 H 20.050510376459442 5.755357763621474 72.45332508002335 H 0.0 **** 0.06
8311 C 19.172603666933554 81.77059328539445 67.18605781300128 C 0.0 **** -0.24
8312 H 18.157781061976692 81.63387665721274 66.81167667946393 H 0.0 **** 0.06
8313 H 19.768307082060034 82.29534585299751 66.43834877465473 H 0.0 **** 0.06
8314 H 19.61853479394722 80.79749530342127 67.38996283713675 H 0.0 **** 0.06
8315 H 19.14453343463677 82.35726195337207 68.10515714478991 H 0.0 **** 0.06
8316 C 54.314265090328746 7.8964977587917815 80.50996454469237 C 0.0 **** -0.24
8317 H 53.38827600951123 7.710497765874607 81.05433463511794 H 0.0 **** 0.06
8318 H 54.47624311150548 8.971186718873156 80.42499201059309 H 0.0 **** 0.06
8319 H 54.24380977162696 7.459038190108856 79.51395312740034 H 0.0 **** 0.06
8320 H 55.14759786542888 7.4444461003173785 81.04677575285591 H 0.0 **** 0.06
8321 C 82.47281278259524 94.20311221703896 58.425270202294655 C 0.0 **** -0.24
8322 H 82.4928908474279 94.80742815646512 59.33290490010222 H 0.0 **** 0.06
8323 H 81.77068661603585 94.63943383533164 57.71513513062405 H 0.0 **** 0.06
8324 H 82.15857834998684 93.18901449967555 58.67124595093799 H 0.0 **** 0.06
8325 H 83.46870009395798 94.1784610096314 57.98292493755332 H 0.0 **** 0.06
8326 C 84.71107081208294 30.667188352959244 6.745994403838608 C 0.0 **** -0.24
8327 H 84.47491744797264 30.920567011398475 5.7128320942845505 H 0.0 **** 0.06
8328 H 85.72868800025299 30.98502258254203 6.974198798120938 H 0.0 **** 0.06
8329 H 84.62733038285808 29.59001098276559 6.884839362109858 H 0.0 **** 0.06
8330 H 84.01386942996078 31.175234689930278 7.412734790223993 H 0.0 **** 0.06
8331 C 42.63092370212871 87.89917532068556 41.21929556100247 C 0.0 **** -0.24
8332 H 41.89814383007632 88.65261807631985 40.92838269817565 H 0.0 **** 0.06
8333 H 42.12225468415028 86.95395614121817 41.409477319496546 H 0.0 **** 0.06
8334 H 43.14575470356135 88.224188254095 42.12309650991568 H 0.0 **** 0.06
8335 H 43.35499876513927 87.76792295250819 40.41545251113109 H 0.0 **** 0.06
8336 C 113.45063526252005 36.91711897887615 78.01023863727272 C 0.0 **** -0.24
8337 H 113.53262247345384 38.00391667140684 77.97249617333506 H 0.0 **** 0.06
8338 H 112.46547050201605 36.614414062071035 77.65468736076753 H 0.0 **** 0.06
8339 H 113.58548585993947 36.57932276082016 79.03752513941541 H 0.0 **** 0.06
8340 H 114.21818718954529 36.472802360497155 77.37693830663181 H 0.0 **** 0.06
8341 C 40.063673208529835 95.13767863521664 19.57223718668574 C 0.0 **** -0.24
8342 H 40.332026381244816 94.19832421004557 19.088475457004876 H 0.0 **** 0.06
8343 H 40.606108703134765 95.22957702444907 20.51288958826939 H 0.0 **** 0.06
8344 H 38.99099231030114 95.15088765244332 19.768009569514575 H 0.0 **** 0.06
8345 H 40.32413483313627 95.96945579819143 18.918650178489997 H 0.0 **** 0.06
8346 C 25.64944623693583 30.464792016810975 61.89924168753845 C 0.0 **** -0.24
8347 H 26.289673654711407 31.338279421426762 61.77994749331202 H 0.0 **** 0.06
8348 H 26.023847533946395 29.652392871178165 61.27580853723492 H 0.0 **** 0.06
8349 H 24.632311368482107 30.71526833433819 61.59811908675735 H 0.0 **** 0.06
8350 H 25.652001417148796 30.152926592129745 62.94404407373378 H 0.0 **** 0.06
8351 C 64.13501961781571 42.91578048815762 2.83854482638975 C 0.0 **** -0.24
8352 H 64.96853178802343 42.336020811378376 3.235407205899522 H 0.0 **** 0.06
8353 H 63.62815537973847 42.33922669422307 2.0638590846983362 H 0.0 **** 0.06
8354 H 64.50969429485971 43.84639140289801 2.4124934720924696 H 0.0 **** 0.06
8355 H 63.43421636635071 43.140808219343455 3.6418951995294275 H 0.0 **** 0.06
8356 C 17.42019186357112 71.4931213677909 73.20925727757526 C 0.0 **** -0.24
8357 H 17.801696672694362 71.63187425772472 72.1976198542311 H 0.0 **** 0.06
8358 H 16.377494053947544 71.81130835612758 73.25097048585121 H 0.0 **** 0.06
8359 H 18.009758759242516 72.08813109212956 73.90534904429035 H 0.0 **** 0.06
8360 H 17.490046961122772 70.44011093368027 73.4817711998873 H 0.0 **** 0.06
8361 C 6.239823365700801 68.3332582306848 15.493884750833057 C 0.0 **** -0.24
8362 H 6.528807569310985 67.3105031033582 15.254448822842601 H 0.0 **** 0.06
8363 H 5.539685954634535 68.32741894598269 16.330204755934556 H 0.0 **** 0.06
8364 H 5.765099056140144 68.78866771547433 14.62499778248132 H 0.0 **** 0.06
8365 H 7.126373566735168 68.90694994699328 15.766426824709264 H 0.0 **** 0.06
8366 C 6.082375533089191 53.42031827295318 14.522538661731463 C 0.0 **** -0.24
8367 H 6.510864242384287 53.97084299657402 15.36034027107955 H 0.0 **** 0.06
8368 H 5.294278316582364 52.761200035152314 14.887585945457804 H 0.0 **** 0.06
8369 H 6.860664173628862 52.82677181135534 14.04254390922921 H 0.0 **** 0.06
8370 H 5.664642683810911 54.1227611437582 13.801923103010669 H 0.0 **** 0.06
8371 C 23.996322373088418 21.694154272364813 70.9782303034342 C 0.0 **** -0.24
8372 H 23.45853524383955 20.757787093707975 71.12868991543974 H 0.0 **** 0.06
8373 H 24.287155807466206 22.104795912006296 71.94486409257883 H 0.0 **** 0.06
8374 H 23.351593515332922 22.404350705143315 70.46042504545994 H 0.0 **** 0.06
8375 H 24.887635337311053 21.50754355395651 70.3784084569603 H 0.0 **** 0.06
8376 C 59.30902255843358 103.91496788242569 33.08204755110519 C 0.0 **** -0.24
8377 H 59.94569198226469 103.16514160258373 32.61074060146204 H 0.0 **** 0.06
8378 H 59.610918500650314 104.0462735441372 34.121569685447746 H 0.0 **** 0.06
8379 H 58.27052563344941 103.58394356578685 33.04325740468748 H 0.0 **** 0.06
8380 H 59.408535165401986 104.86092766983325 32.55163661540907 H 0.0 **** 0.06
8381 C 17.892662161601436 87.21942135695417 18.307749409150233 C 0.0 **** -0.24
8382 H 16.846133837374282 87.1089578351411 18.590826783773707 H 0.0 **** 0.06
8383 H 18.169912909475613 86.41790394040004 17.62225070698446 H 0.0 **** 0.06
8384 H 18.517107252927815 87.16945049712962 19.199382045051948 H 0.0 **** 0.06
8385 H 18.03526265051596 88.18325800824402 17.8169677035047 H 0.0 **** 0.06
8386 C 10.959788089947281 111.6323410228523 24.997973070087482 C 0.0 **** -0.24
8387 H 10.039801477552231 112.00446093651232 25.448581486885075 H 0.0 **** 0.06
8388 H 11.552132258651426 111.11820588162584 25.75611956250077 H 0.0 **** 0.06
8389 H 11.531111033696533 112.4683283089247 24.594890093325432 H 0.0 **** 0.06
8390 H 10.715481465846366 110.93775225377823 24.194357328550836 H 0.0 **** 0.06
8391 C 55.5682655709698 97.1554189245694 112.15999233991616 C 0.0 **** -0.24
8392 H 54.64777924937607 97.72576054959234 112.29033036293316 H 0.0 **** 0.06
8393 H 55.490734563944386 96.54013642800868 111.26335028648477 H 0.0 **** 0.06
8394 H 55.724219591585666 96.5154327759671 113.02783424230087 H 0.0 **** 0.06
8395 H 56.408544277552835 97.84198792337168 112.05810885976499 H 0.0 **** 0.06
8396 C 21.505089394990833 47.88205866450534 95.23422042836549 C 0.0 **** -0.24
8397 H 22.126304128446648 48.39098828485637 94.49697049068257 H 0.0 **** 0.06
8398 H 20.89003416081843 48.61386521529492 95.75752890484799 H 0.0 **** 0.06
8399 H 22.142163422538616 47.36322708121036 95.94985090079985 H 0.0 **** 0.06
8400 H 20.862257383726362 47.1604798012686 94.7303558774193 H 0.0 **** 0.06
8401 C 23.32716135883348 47.79011172361003 62.612259495023864 C 0.0 **** -0.24
8402 H 23.257865856766387 46.70328419291491 62.66262446796459 H 0.0 **** 0.06
8403 H 24.196035962986343 48.12519663716115 63.178627371170066 H 0.0 **** 0.06
8404 H 22.42442874349541 48.231100929359584 63.03607425611813 H 0.0 **** 0.06
8405 H 23.428952131526444 48.09947557950325 61.572812956133944 H 0.0 **** 0.06
8406 C 57.8411172717839 62.11355182239177 73.01321543446149 C 0.0 **** -0.24
8407 H 57.993802560867096 62.033376634598895 74.0890451801738 H 0.0 **** 0.06
8408 H 58.347035953978036 63.00284488797779 72.63928950577703 H 0.0 **** 0.06
8409 H 56.77445249149707 62.18622859005211 72.80271876915329 H 0.0 **** 0.06
8410 H 58.248324984336875 61.229696078952145 72.52165212308715 H 0.0 **** 0.06
8411 C 100.6721764084027 15.107135520281702 84.2168637014268 C 0.0 **** -0.24
8412 H 101.44375030156964 15.860115778214492 84.37290513933016 H 0.0 **** 0.06
8413 H 99.78221597404108 15.579604060702763 83.8026869474101 H 0.0 **** 0.06
8414 H 100.42541371591844 14.636647950948458 85.16834157506038 H 0.0 **** 0.06
8415 H 101.03842237496508 14.350508472019612 83.52209897499641 H 0.0 **** 0.06
8416 C 34.000137357849724 27.857447290719335 76.92665256034809 C 0.0 **** -0.24
8417 H 33.35759397941237 28.715784148633134 77.12425678733234 H 0.0 **** 0.06
8418 H 33.72430052664953 27.41018590479169 75.9715379783758 H 0.0 **** 0.06
8419 H 33.87853716577925 27.122293513647037 77.72057114938804 H 0.0 **** 0.06
8420 H 35.03948359011815 28.183326562478953 76.88870982659381 H 0.0 **** 0.06
8421 C 34.08988735481946 39.177010601848906 43.42622873466367 C 0.0 **** -0.24
8422 H 33.125042516693995 39.6524802742709 43.60184071590933 H 0.0 **** 0.06
8423 H 33.937375335397796 38.12601163996682 43.1797944679264 H 0.0 **** 0.06
8424 H 34.70205203424747 39.25411082966001 44.32521402797711 H 0.0 **** 0.06
8425 H 34.59515134700175 39.67544442010623 42.599478148110265 H 0.0 **** 0.06
8426 C 51.30420376646606 32.58951006408165 5.2504331092536205 C 0.0 **** -0.24
8427 H 51.29765933942511 33.19882553324939 4.3461314789192755 H 0.0 **** 0.06
8428 H 50.51948191847029 32.93351526799441 5.924933406205625 H 0.0 **** 0.06
8429 H 52.27238841451293 32.68003666381403 5.7423802069502585 H 0.0 **** 0.06
8430 H 51.12664116723289 31.546581544752584 4.986353139955185 H 0.0 **** 0.06
8431 C 106.57034238692637 44.46666124319444 67.40979496164817 C 0.0 **** -0.24
8432 H 107.40532094293609 44.5587118663079 66.71542976160372 H 0.0 **** 0.06
8433 H 106.88240933150688 44.80475461049838 68.39844237547968 H 0.0 **** 0.06
8434 H 106.25651462310118 43.424194411989646 67.46435318973272 H 0.0 **** 0.06
8435 H 105.73987795798291 45.0801700590781 67.0610697190414 H 0.0 **** 0.06
8436 C 4.5876309942910325 80.28230958624745 103.97778766542223 C 0.0 **** -0.24
8437 H 4.052640717463788 81.17263210643166 104.3074643827045 H 0.0 **** 0.06
8438 H 4.406598490515734 79.46869726497381 104.68124119029034 H 0.0 **** 0.06
8439 H 5.655819378669321 80.49534326324843 103.93567131847891 H 0.0 **** 0.06
8440 H 4.235018145923647 79.99236095447404 102.98764446199431 H 0.0 **** 0.06
8441 C 106.29263686986019 28.068371406742017 8.739361850899229 C 0.0 **** -0.24
8442 H 106.69177382816711 27.114032461932197 9.08191021512014 H 0.0 **** 0.06
8443 H 105.25597081231454 28.165503638487564 9.063684894660433 H 0.0 **** 0.06
8444 H 106.33802046620517 28.11057554039087 7.650798240110536 H 0.0 **** 0.06
8445 H 106.88376127515265 28.881356525824458 9.160111952508071 H 0.0 **** 0.06
8446 C 31.417913537064464 107.93876206271477 43.237358992948174 C 0.0 **** -0.24
8447 H 31.72897746581245 107.03043665678933 43.75399114320834 H 0.0 **** 0.06
8448 H 30.39207612779549 107.82329825078526 42.88726432024092 H 0.0 **** 0.06
8449 H 32.076333899819076 108.11492437902731 42.385709347761775 H 0.0 **** 0.06
8450 H 31.47618271037561 108.7836911161352 43.922696930695025 H 0.0 **** 0.06
8451 C 75.58038467934267 107.72832338082969 100.19346577940345 C 0.0 **** -0.24
8452 H 75.0815684835087 108.21474036573804 101.03206252730908 H 0.0 **** 0.06
8453 H 76.41449596804858 107.1320187593256 100.5637801465518 H 0.0 **** 0.06
8454 H 75.95390311917299 108.48615729778578 99.50383663394464 H 0.0 **** 0.06
8455 H 74.87262007472691 107.08297226996285 99.6745903809159 H 0.0 **** 0.06
8456 C 77.08815278620881 55.79963564018974 96.0992558463587 C 0.0 **** -0.24
8457 H 77.2053745559088 55.03327213974429 96.86631821148484 H 0.0 **** 0.06
8458 H 77.87104552479767 55.68563410960864 95.34938174213463 H 0.0 **** 0.06
8459 H 77.16226716141409 56.78507183492427 96.55724604164742 H 0.0 **** 0.06
8460 H 76.11241622595924 55.69165276171109 95.625577245863 H 0.0 **** 0.06
8461 C 34.494925528926274 47.82118147333492 59.66176592205022 C 0.0 **** -0.24
8462 H 33.584909215035935 48.05400945545932 59.10845315736975 H 0.0 **** 0.06
8463 H 35.24532672259565 48.58655343261614 59.464998702188666 H 0.0 **** 0.06
8464 H 34.874146470291805 46.84962887292471 59.344514299999446 H 0.0 **** 0.06
8465 H 34.27300414188596 47.793927949289895 60.72857691567174 H 0.0 **** 0.06
8466 C 31.42780446206423 48.06147192952966 6.243511611671977 C 0.0 **** -0.24
8467 H 30.511697069346503 47.84780381641292 6.793489516352622 H 0.0 **** 0.06
8468 H 32.133379658320806 48.57269716918509 6.898961068644837 H 0.0 **** 0.06
8469 H 31.19804404903506 48.69725798668662 5.388970946760992 H 0.0 **** 0.06
8470 H 31.867195296097726 47.12719642451128 5.894446414939239 H 0.0 **** 0.06
8471 C 71.3980502228502 71.84437581597247 108.7928437147134 C 0.0 **** -0.24
8472 H 71.73877078619853 70.8269023159217 108.98617701158547 H 0.0 **** 0.06
8473 H 71.20131931332787 72.34739306464475 109.73944982777331 H 0.0 **** 0.06
8474 H 70.48401619866468 71.8145940945406 108.19985518287201 H 0.0 **** 0.06
8475 H 72.16881813341695 72.3870401487438 108.2459106462096 H 0.0 **** 0.06
8476 C 24.280686989016885 90.8839254713846 106.45391945500779 C 0.0 **** -0.24
8477 H 25.077068188412767 90.85828000352922 105.70916249378014 H 0.0 **** 0.06
8478 H 23.697965251345636 91.7966691178517 106.32924799701634 H 0.0 **** 0.06
8479 H 24.717773457117488 90.86442953565609 107.45278478224539 H 0.0 **** 0.06
8480 H 23.63268168528583 90.01743202601187 106.32336000286193 H 0.0 **** 0.06
8481 C 36.823907132870545 50.14468678367432 70.88026320851066 C 0.0 **** -0.24
8482 H 36.88184280281112 49.53266337872091 71.78053226926656 H 0.0 **** 0.06
8483 H 37.75682194875128 50.05914774340776 70.32178075103093 H 0.0 **** 0.06
8484 H 36.662144526157704 51.18623766363817 71.15889416097514 H 0.0 **** 0.06
8485 H 35.99565646428911 49.80097140719511 70.26031954577422 H 0.0 **** 0.06
8486 C 95.27434738434094 109.47434897009099 36.1250115522892 C 0.0 **** -0.24
8487 H 96.07763105951693 110.18215136213396 36.32666620147014 H 0.0 **** 0.06
8488 H 94.67551221333186 109.33911977956146 37.02606987314552 H 0.0 **** 0.06
8489 H 95.70130433402082 108.51732155863417 35.82428097335117 H 0.0 **** 0.06
8490 H 94.64377768997474 109.85825528262161 35.32306619331087 H 0.0 **** 0.06
8491 C 77.16042431186509 100.67862645627528 102.08798177705657 C 0.0 **** -0.24
8492 H 77.03989266564446 101.08013130194095 103.0936847562792 H 0.0 **** 0.06
8493 H 76.59667190378678 101.29010161750553 101.38282154489912 H 0.0 **** 0.06
8494 H 76.78986501336965 99.65378132067411 102.05903650514976 H 0.0 **** 0.06
8495 H 78.2164950595382 100.68983212050395 101.81662662841389 H 0.0 **** 0.06
8496 C 110.84355340226759 85.3062270981905 15.03310944525873 C 0.0 **** -0.24
8497 H 111.71288135695386 85.67367721041006 14.488244462525017 H 0.0 **** 0.06
8498 H 110.94841589921481 85.54872464832289 16.090311088016534 H 0.0 **** 0.06
8499 H 110.77140701896491 84.22460530495016 14.913414726052451 H 0.0 **** 0.06
8500 H 109.94288845261366 85.77658707757035 14.63929646994228 H 0.0 **** 0.06
8501 C 14.610649285046748 1.0042578781954603 112.24037275129943 C 0.0 **** -0.24
8502 H 14.052707495776133 1.9403021458981016 112.21766511777139 H 0.0 **** 0.06
8503 H 15.679543181031363 1.218071329269435 112.24921663333149 H 0.0 **** 0.06
8504 H 14.365014326704852 0.41367095895105876 111.35824687300048 H 0.0 **** 0.06
8505 H 14.345032900200124 0.4451070797456964 113.13773939634332 H 0.0 **** 0.06
8506 C 109.56868066535176 69.33955206852761 73.11411782173634 C 0.0 **** -0.24
8507 H 109.38690419937416 70.02497962815221 73.94186230287308 H 0.0 **** 0.06
8508 H 110.56504033116528 68.9084435952825 73.21092405387348 H 0.0 **** 0.06
8509 H 109.49673162084898 69.88202672450456 72.17124447001252 H 0.0 **** 0.06
8510 H 108.82461438421188 68.54339712580054 73.13317606965715 H 0.0 **** 0.06
8511 C 79.04125080077574 26.68412556867446 113.07195924138412 C 0.0 **** -0.24
8512 H 78.74061884952653 27.121631032700407 112.11994561018386 H 0.0 **** 0.06
8513 H 78.35009427267914 25.885452935471278 113.33935627658354 H 0.0 **** 0.06
8514 H 79.0263424050583 27.45318963157183 113.84467833611012 H 0.0 **** 0.06
8515 H 80.04960909235143 26.279247011193547 112.9827936901081 H 0.0 **** 0.06
8516 C 75.82471491623511 85.90291965965554 109.33390327629466 C 0.0 **** -0.24
8517 H 76.01193222252124 84.82978322100132 109.29816240765497 H 0.0 **** 0.06
8518 H 76.50262024106127 86.3657024355822 110.05229740509895 H 0.0 **** 0.06
8519 H 74.79409477816642 86.08155761237117 109.63847526444815 H 0.0 **** 0.06
8520 H 75.99177133986075 86.33390562255371 108.34687146673987 H 0.0 **** 0.06
8521 C 45.85200335577743 67.47815407194577 36.79989468234632 C 0.0 **** -0.24
8522 H 45.77505425631865 68.1452566104762 37.658532906061 H 0.0 **** 0.06
8523 H 45.64476762205056 68.03698915542793 35.88667492925205 H 0.0 **** 0.06
8524 H 45.12961525747263 66.66869177729154 36.90338267659351 H 0.0 **** 0.06
8525 H 46.85918561613007 67.06346721390383 36.752184202491776 H 0.0 **** 0.06
8526 C 30.210009552450842 24.852884715929292 25.43661159489028 C 0.0 **** -0.24
8527 H 29.867653193126472 25.833303296747374 25.105467996545144 H 0.0 **** 0.06
8528 H 29.993546010398823 24.733064153798693 26.49810823431156 H 0.0 **** 0.06
8529 H 31.284177566075137 24.76916049858238 25.271630123312605 H 0.0 **** 0.06
8530 H 29.69326623123093 24.077566629537017 24.869961947109203 H 0.0 **** 0.06
8531 C 37.001833646519415 106.11784528461084 49.959247941663904 C 0.0 **** -0.24
8532 H 36.84610262960948 107.1963007136364 49.938845216730414 H 0.0 **** 0.06
8533 H 36.75017247677227 105.69550569396212 48.98563119622412 H 0.0 **** 0.06
8534 H 36.36611128097365 105.67312785995533 50.724258390318425 H 0.0 **** 0.06
8535 H 38.047066997641444 105.90682762350237 50.18765198164891 H 0.0 **** 0.06
8536 C 90.38878726515645 33.78194144133835 69.1795006342453 C 0.0 **** -0.24
8537 H 90.5893024374808 34.518269512997136 68.40103084829877 H 0.0 **** 0.06
8538 H 90.10663368712551 32.834964552531744 68.71884272229852 H 0.0 **** 0.06
8539 H 89.57525928453916 34.135645316110384 69.81205678879758 H 0.0 **** 0.06
8540 H 91.28426592377934 33.64003925473702 69.78418176526941 H 0.0 **** 0.06
8541 C 69.23019828879235 62.70710346610406 53.78474462372918 C 0.0 **** -0.24
8542 H 68.49163127974293 63.40605273739368 54.17654841442277 H 0.0 **** 0.06
8543 H 69.7908055254223 62.26970453879886 54.61108975635142 H 0.0 **** 0.06
8544 H 69.91469980840172 63.23625942253631 53.12059984675494 H 0.0 **** 0.06
8545 H 68.72435578808806 61.9170827596389 53.22972012009234 H 0.0 **** 0.06
8546 C 19.76378069010991 19.03835664591784 85.91064547938579 C 0.0 **** -0.24
8547 H 19.760870375196276 18.33717114298394 85.07656578752876 H 0.0 **** 0.06
8548 H 20.657916894669654 18.881780518011517 86.51388664693481 H 0.0 **** 0.06
8549 H 18.876901262925372 18.876857959466797 86.52365659516401 H 0.0 **** 0.06
8550 H 19.757707679200195 20.058761077354372 85.52630250890768 H 0.0 **** 0.06
8551 C 17.431704428329226 95.68119007789429 73.93774510388081 C 0.0 **** -0.24
8552 H 16.39789579629894 95.78382316607143 74.26722909669893 H 0.0 **** 0.06
8553 H 17.762232760175948 96.61474926240919 73.48204910411232 H 0.0 **** 0.06
8554 H 17.502044550951183 94.87480085233292 73.20737857321807 H 0.0 **** 0.06
8555 H 18.06469511449245 95.45023093080289 74.79513665778289 H 0.0 **** 0.06
8556 C 91.40962442702391 114.26767786510773 23.563694810655107 C 0.0 **** -0.24
8557 H 92.05964541612951 115.08960137163527 23.263369940901725 H 0.0 **** 0.06
8558 H 91.40306196373217 114.18907178357637 24.651611934268885 H 0.0 **** 0.06
8559 H 91.77959924256169 113.3362905646392 23.13382628875965 H 0.0 **** 0.06
8560 H 90.39754724392287 114.45614813473448 23.20599623907657 H 0.0 **** 0.06
8561 C 0.5898689101651655 111.3277663053755 92.42491926805897 C 0.0 **** -0.24
8562 H 1.3774096033658054 111.1847688372038 91.68674531108822 H 0.0 **** 0.06
8563 H 1.0173251752828492 111.27687579063387 93.42666269360697 H 0.0 **** 0.06
8564 H -0.16171396639276736 110.5460335205316 92.31108326934036 H 0.0 **** 0.06
8565 H 0.12517680399602682 112.30213588591283 92.27685957396888 H 0.0 **** 0.06
8566 C 55.66531300556326 52.97968740264122 7.128064990212309 C 0.0 **** -0.24
8567 H 55.20116304646592 53.117096492179485 6.15125378379588 H 0.0 **** 0.06
8568 H 55.12469506236127 53.565461138352305 7.871884159220755 H 0.0 **** 0.06
8569 H 56.70299980234945 53.31220351569863 7.087534116823306 H 0.0 **** 0.06
8570 H 55.63177283510677 51.92511608594879 7.401002581107164 H 0.0 **** 0.06
8571 C 88.93632121380104 7.2558863461363785 49.623620528923254 C 0.0 **** -0.24
8572 H 89.45455764131603 6.690772106758885 48.84900097869718 H 0.0 **** 0.06
8573 H 89.66705338601734 7.750019243172233 50.263113819762054 H 0.0 **** 0.06
8574 H 88.32814347305184 6.577681189272198 50.22233512395724 H 0.0 **** 0.06
8575 H 88.29398809255606 8.004317241068577 49.158600141041006 H 0.0 **** 0.06
8576 C 26.590182421961558 71.00053869275362 98.42284955396337 C 0.0 **** -0.24
8577 H 26.039116135304567 71.80745606997152 98.90528796039634 H 0.0 **** 0.06
8578 H 26.122885546121033 70.76388661639903 97.46590802349944 H 0.0 **** 0.06
8579 H 26.577610693238597 70.1182903765479 99.06164007313095 H 0.0 **** 0.06
8580 H 27.621407056870922 71.31414583271902 98.25605640952506 H 0.0 **** 0.06
8581 C 91.70885725517343 89.14006374452197 55.106792885010016 C 0.0 **** -0.24
8582 H 91.44328149550563 88.69825250413965 56.067311448311244 H 0.0 **** 0.06
8583 H 92.54829230624682 88.59337189008181 54.67496829899231 H 0.0 **** 0.06
8584 H 91.989506997722 90.18283757040393 55.251985771044616 H 0.0 **** 0.06
8585 H 90.85389514453257 89.08412136568725 54.43292806299008 H 0.0 **** 0.06
8586 C 25.2081988913952 36.12166335682347 73.10361661875272 C 0.0 **** -0.24
8587 H 24.386099182239747 35.42466870844445 73.2646509406948 H 0.0 **** 0.06
8588 H 25.30807435150541 36.77182127599443 73.97305675780574 H 0.0 **** 0.06
8589 H 25.004298814050742 36.72543898161599 72.21915727895326 H 0.0 **** 0.06
8590 H 26.133544782524595 35.564128702327665 72.95779940341146 H 0.0 **** 0.06
8591 C 68.77536189387081 0.8032805260440394 14.27136703038309 C 0.0 **** -0.24
8592 H 69.81146410964236 0.6499617814356782 13.972092860840405 H 0.0 **** 0.06
8593 H 68.19699075241603 1.1523372164261936 13.414861391681029 H 0.0 **** 0.06
8594 H 68.73357577790419 1.5476389441903855 15.065941738413557 H 0.0 **** 0.06
8595 H 68.35819915851621 -0.13735168471623727 14.632092546344921 H 0.0 **** 0.06
8596 C 47.86563400481793 1.459326294311884 27.82233088675099 C 0.0 **** -0.24
8597 H 48.34145590948738 0.4980007212547921 28.01938997613624 H 0.0 **** 0.06
8598 H 48.33003646399086 2.227570253663414 28.43932443668413 H 0.0 **** 0.06
8599 H 46.80369690600798 1.3941355944690308 28.060056245206795 H 0.0 **** 0.06
8600 H 47.98680958370198 1.7141094999997577 26.769312572182287 H 0.0 **** 0.06
8601 C 95.87245153553886 48.79001302328112 92.87723637635196 C 0.0 **** -0.24
8602 H 96.63057997158697 48.021145999290326 92.7232577591659 H 0.0 **** 0.06
8603 H 94.93804205817605 48.32160970664387 93.18444110807133 H 0.0 **** 0.06
8604 H 95.71630051300502 49.33709432766318 91.94729687321188 H 0.0 **** 0.06
8605 H 96.20724291501188 49.47912682074667 93.65213922361193 H 0.0 **** 0.06
8606 C 105.76477990128554 36.12321939726618 80.38668974192488 C 0.0 **** -0.24
8607 H 105.51565975704578 35.24433144717054 79.79180513502025 H 0.0 **** 0.06
8608 H 106.11997205342765 36.91735183902085 79.73094842072136 H 0.0 **** 0.06
8609 H 106.54497977079704 35.8674490065828 81.10413400308333 H 0.0 **** 0.06
8610 H 104.87780471923274 36.462541573110315 80.92130550808272 H 0.0 **** 0.06
8611 C 16.643632430570165 0.22493817676266303 97.18810802144213 C 0.0 **** -0.24
8612 H 16.848857752129703 -0.7985910149914446 96.87428303586279 H 0.0 **** 0.06
8613 H 17.58398251652389 0.7448261741388933 97.3702912235293 H 0.0 **** 0.06
8614 H 16.05141333269495 0.21164228952176245 98.10211689002165 H 0.0 **** 0.06
8615 H 16.089867412673215 0.7402394114642448 96.40271477628528 H 0.0 **** 0.06
8616 C 96.25950985804394 58.29207536598916 26.618301935005164 C 0.0 **** -0.24
8617 H 96.34165257120975 58.657554815668874 27.641026627931552 H 0.0 **** 0.06
8618 H 95.25518909411119 58.48635731778208 26.242014977346713 H 0.0 **** 0.06
8619 H 96.45350731205892 57.21921428831716 26.5996016168111 H 0.0 **** 0.06
8620 H 96.98877203271428 58.80405255108607 25.988961244018 H 0.0 **** 0.06
8621 C 19.879334837367338 115.18079686149011 107.34227165658982 C 0.0 **** -0.24
8622 H 19.880774917495444 114.70323583993496 106.36230738800165 H 0.0 **** 0.06
8623 H 19.6265230443324 116.23572940797226 107.23205313870477 H 0.0 **** 0.06
8624 H 20.86814922047904 115.08906637981138 107.79158022030734 H 0.0 **** 0.06
8625 H 19.142889303848847 114.69519456043975 107.98308050096243 H 0.0 **** 0.06
8626 C 65.69297101189466 59.61748170937267 75.00734195652873 C 0.0 **** -0.24
8627 H 66.60695084644873 59.405614155294586 74.45420323247356 H 0.0 **** 0.06
8628 H 64.86386330209022 59.06444978932407 74.5644336921539 H 0.0 **** 0.06
8629 H 65.4811833486895 60.68616050270896 74.96461943862153 H 0.0 **** 0.06
8630 H 65.81888197235357 59.31320750174393 76.04697518864742 H 0.0 **** 0.06
8631 C 79.26335728040777 17.750854371339273 68.99705010352784 C 0.0 **** -0.24
8632 H 79.04943490297921 17.95333138153947 70.04610767307486 H 0.0 **** 0.06
8633 H 78.39665389588622 18.01697693617197 68.39190748971515 H 0.0 **** 0.06
8634 H 79.48447994632407 16.691455707492395 68.86992122856685 H 0.0 **** 0.06
8635 H 80.12328792387756 18.34128103843898 68.68190068883007 H 0.0 **** 0.06
8636 C 76.18111594070382 34.037433554341874 8.701158745822482 C 0.0 **** -0.24
8637 H 77.14915223794065 33.840118908468924 9.162164426407571 H 0.0 **** 0.06
8638 H 75.38726888054856 33.67978164367855 9.356658930534735 H 0.0 **** 0.06
8639 H 76.1236939334135 33.51931653884651 7.7433246854465665 H 0.0 **** 0.06
8640 H 76.0665652684616 35.10964191812718 8.541920174344085 H 0.0 **** 0.06
8641 C 103.42702373501896 78.91394005226925 86.43348793006652 C 0.0 **** -0.24
8642 H 103.53195715846286 77.84877498965142 86.63787451969347 H 0.0 **** 0.06
8643 H 102.45164773849291 79.10363580246656 85.9852115055171 H 0.0 **** 0.06
8644 H 104.21219882439063 79.22982730714813 85.74574965014622 H 0.0 **** 0.06
8645 H 103.51425219058186 79.47318453509348 87.3649139059672 H 0.0 **** 0.06
8646 C 20.148673775376324 73.30596607429234 45.49531203517782 C 0.0 **** -0.24
8647 H 19.286596981709977 73.15255334930164 44.84560692280246 H 0.0 **** 0.06
8648 H 21.028681134122394 73.5157603321452 44.88607476037524 H 0.0 **** 0.06
8649 H 20.321008509318006 72.40707051993598 46.086507456373596 H 0.0 **** 0.06
8650 H 19.95716777221267 74.14722589520139 46.1604344625824 H 0.0 **** 0.06
8651 C 25.473294629911614 113.12616483456384 24.792439292196065 C 0.0 **** -0.24
8652 H 24.418895955341426 113.18083367017056 24.518498781356243 H 0.0 **** 0.06
8653 H 25.619771258742382 113.59400011345838 25.76585404935561 H 0.0 **** 0.06
8654 H 26.069975490429364 113.64699956344748 24.044731066224102 H 0.0 **** 0.06
8655 H 25.781018236375935 112.0816203132855 24.840256406677696 H 0.0 **** 0.06
8656 C 30.41658128631525 48.93602613226861 60.10725571020026 C 0.0 **** -0.24
8657 H 30.700743257864367 49.04655218777043 59.06040015054474 H 0.0 **** 0.06
8658 H 31.034196584605787 49.591064780241965 60.72225758337913 H 0.0 **** 0.06
8659 H 30.563590821996534 47.900520070408476 60.41627030326946 H 0.0 **** 0.06
8660 H 29.36703670445634 49.20575091775211 60.22892050171991 H 0.0 **** 0.06
8661 C 15.925348869635869 42.49252654663104 16.883824318452323 C 0.0 **** -0.24
8662 H 14.853622910375773 42.31415077208362 16.787029685234682 H 0.0 **** 0.06
8663 H 16.14359713863453 43.53153786533318 16.637629864889302 H 0.0 **** 0.06
8664 H 16.46445197778943 41.8351568224727 16.201807875890992 H 0.0 **** 0.06
8665 H 16.235926909185807 42.28687874426157 17.907874013769895 H 0.0 **** 0.06
8666 C 104.2578508570677 90.12048175506251 106.04339326643559 C 0.0 **** -0.24
8667 H 103.22718541269512 89.78938530666846 105.91563785829908 H 0.0 **** 0.06
8668 H 104.63807913439013 90.5007313343496 105.09457329206414 H 0.0 **** 0.06
8669 H 104.87114383263014 89.28066469670463 106.37122345681881 H 0.0 **** 0.06
8670 H 104.2950176502689 90.91043536157 106.7928420139327 H 0.0 **** 0.06
8671 C 22.608902455675818 90.26569830131423 76.09794899239552 C 0.0 **** -0.24
8672 H 23.553551413966524 89.75195331165877 76.28057175420491 H 0.0 **** 0.06
8673 H 21.83312407188434 89.83529233271818 76.73137394239671 H 0.0 **** 0.06
8674 H 22.32910043062577 90.14968707165154 75.05042341762177 H 0.0 **** 0.06
8675 H 22.721773662445113 91.32465739204358 76.32853789858291 H 0.0 **** 0.06
8676 C 31.511229009341392 1.9118335098094832 15.532082238954871 C 0.0 **** -0.24
8677 H 32.496148590099516 1.7304547901327965 15.101175329639347 H 0.0 **** 0.06
8678 H 30.748033997864823 1.752833388779706 14.770307411967622 H 0.0 **** 0.06
8679 H 31.45604886388788 2.9386094065061457 15.893223406410385 H 0.0 **** 0.06
8680 H 31.346094078594625 1.225491939839273 16.361620161620692 H 0.0 **** 0.06
8681 C 5.633517273626708 2.897927044777445 12.644790657241828 C 0.0 **** -0.24
8682 H 5.71635351369639 1.9872915888732425 12.051805195450271 H 0.0 **** 0.06
8683 H 6.434502608672744 2.9252930235518484 13.383801598232878 H 0.0 **** 0.06
8684 H 4.66864660621205 2.913555920487102 13.152825062259467 H 0.0 **** 0.06
8685 H 5.713280141199419 3.766547751428215 11.99011013603193 H 0.0 **** 0.06
8686 C 68.27836301073756 41.30828193324459 66.26663175746319 C 0.0 **** -0.24
8687 H 67.45248353709104 40.994758149881164 65.62765873914717 H 0.0 **** 0.06
8688 H 69.08497147081806 40.57837140150801 66.20115704841787 H 0.0 **** 0.06
8689 H 67.93294168059606 41.376633268722685 67.29844074319512 H 0.0 **** 0.06
8690 H 68.6413628493778 42.282082499686766 65.93997130387663 H 0.0 **** 0.06
8691 C 99.14631455356096 77.92086364694299 95.37674592389413 C 0.0 **** -0.24
8692 H 99.37485446623154 78.89394259673355 94.9413926756003 H 0.0 **** 0.06
8693 H 99.37779970073956 77.13730117903182 94.6546011368597 H 0.0 **** 0.06
8694 H 98.08851977227073 77.87849099597838 95.63407304508087 H 0.0 **** 0.06
8695 H 99.74579301028623 77.77570522983416 96.27488238940515 H 0.0 **** 0.06
8696 C 32.477298075044814 68.98485638509555 113.04450770558614 C 0.0 **** -0.24
8697 H 31.60466282089783 69.59734960399152 112.81592212200063 H 0.0 **** 0.06
8698 H 32.66782115542901 69.01234985715087 114.1170199784616 H 0.0 **** 0.06
8699 H 33.34433656746488 69.37590736139612 112.51068654804398 H 0.0 **** 0.06
8700 H 32.29131872928295 67.95717339076168 112.73312229118726 H 0.0 **** 0.06
8701 C 4.018497226474551 64.86049087550498 26.460951458550255 C 0.0 **** -0.24
8702 H 4.165186168793639 64.74090061608797 25.38762482429621 H 0.0 **** 0.06
8703 H 2.9869846853584363 64.61512625990179 26.715980286263033 H 0.0 **** 0.06
8704 H 4.22585914391334 65.89281882323553 26.743655592183444 H 0.0 **** 0.06
8705 H 4.694975851744857 64.19453858521013 26.996422051640565 H 0.0 **** 0.06
8706 C 56.919878694271006 57.96330284462388 55.2351718585648 C 0.0 **** -0.24
8707 H 55.85862653541642 57.71521228581244 55.22581920408396 H 0.0 **** 0.06
8708 H 57.280847044109805 57.972058644236185 56.26426797412705 H 0.0 **** 0.06
8709 H 57.0673661747669 58.94684978919939 54.789140018094486 H 0.0 **** 0.06
8710 H 57.471391294726686 57.217163100843294 54.6622582993723 H 0.0 **** 0.06
8711 C 78.57958181600873 57.15391754688835 102.94072315052858 C 0.0 **** -0.24
8712 H 78.7778445116347 56.94129537486941 103.99136927793295 H 0.0 **** 0.06
8713 H 77.88683605061405 57.99230900926467 102.8653531578467 H 0.0 **** 0.06
8714 H 78.14071717641116 56.27567529692644 102.46849771206641 H 0.0 **** 0.06
8715 H 79.51322832452152 57.40791406342328 102.43928173288298 H 0.0 **** 0.06
8716 C 51.15924060051162 55.36320943519166 107.68327640343144 C 0.0 **** -0.24
8717 H 50.22828588213781 55.12206562593735 108.19583712964368 H 0.0 **** 0.06
8718 H 51.00447131299137 55.30717426285594 106.60507597358334 H 0.0 **** 0.06
8719 H 51.930769283289926 54.65159832865129 107.97624678307471 H 0.0 **** 0.06
8720 H 51.47325594574416 56.37121625876358 107.9544113626756 H 0.0 **** 0.06
8721 C 22.58548730585295 55.62812819452137 33.46215827306307 C 0.0 **** -0.24
8722 H 21.78190863626523 54.92111378492854 33.671305521447636 H 0.0 **** 0.06
8723 H 23.187745304095387 55.767944987228276 34.35994061419896 H 0.0 **** 0.06
8724 H 22.159367987795292 56.58323994405849 33.15806071663016 H 0.0 **** 0.06
8725 H 23.212671326471394 55.23838352558859 32.660933709438524 H 0.0 **** 0.06
8726 C 69.35344668026363 76.46153333703063 97.78872231282759 C 0.0 **** -0.24
8727 H 69.94170323466773 77.16968635519001 97.20612123344438 H 0.0 **** 0.06
8728 H 69.5060604705518 75.45506394289453 97.3997069975824 H 0.0 **** 0.06
8729 H 68.29669990663058 76.72258703727584 97.7188018587299 H 0.0 **** 0.06
8730 H 69.66836336164008 76.50037992753977 98.83151231074623 H 0.0 **** 0.06
8731 C 63.58957050647376 54.89420414927698 22.803162573140725 C 0.0 **** -0.24
8732 H 64.23354574483285 54.62290058420123 23.638780149995938 H 0.0 **** 0.06
8733 H 62.54545630609792 54.7561090836366 23.088919467560032 H 0.0 **** 0.06
8734 H 63.81927049782098 54.25987334077341 21.946856021535865 H 0.0 **** 0.06
8735 H 63.75829265888888 55.938132087761964 22.538209995178818 H 0.0 **** 0.06
8736 C 13.45235830334235 70.95648051373365 18.797891142104252 C 0.0 **** -0.24
8737 H 13.095848046695806 71.90761927071316 19.192207014858212 H 0.0 **** 0.06
8738 H 13.900643037206862 71.11418146991815 17.8166145267926 H 0.0 **** 0.06
8739 H 12.614695063972448 70.26370191798264 18.70754865821992 H 0.0 **** 0.06
8740 H 14.197222300337614 70.53759975954284 19.475190297507226 H 0.0 **** 0.06
8741 C 64.95267116306724 28.23377760890432 76.94334068297567 C 0.0 **** -0.24
8742 H 65.46183180128554 27.270422504888643 76.91109234115459 H 0.0 **** 0.06
8743 H 65.68820082139246 29.02855946388827 77.06982985945689 H 0.0 **** 0.06
8744 H 64.25487246068167 28.247397228780358 77.78026182583369 H 0.0 **** 0.06
8745 H 64.40684145679671 28.38781346615255 76.01319372241653 H 0.0 **** 0.06
8746 C 30.736457057102086 96.09730817076492 56.304917466417905 C 0.0 **** -0.24
8747 H 31.05293331327337 95.34803840176087 57.029816139531064 H 0.0 **** 0.06
8748 H 29.735021435386813 95.85541393871387 55.946090842278984 H 0.0 **** 0.06
8749 H 31.430672512668934 96.10522127254711 55.46429218173328 H 0.0 **** 0.06
8750 H 30.725492910606903 97.07977589130287 56.77713196616331 H 0.0 **** 0.06
8751 C 34.24682503644044 66.69150526306673 71.58024409319938 C 0.0 **** -0.24
8752 H 35.317925000916034 66.4910187098845 71.54275269361699 H 0.0 **** 0.06
8753 H 33.96908585550079 66.99285655709396 72.59064101609374 H 0.0 **** 0.06
8754 H 33.69955595319152 65.79008501844892 71.30613353914907 H 0.0 **** 0.06
8755 H 34.00210915884992 67.49144067964413 70.88229928531285 H 0.0 **** 0.06
8756 C 63.27584081843388 20.893968109306574 110.07607467993836 C 0.0 **** -0.24
8757 H 62.749915709578346 21.070509877666268 109.13748831071678 H 0.0 **** 0.06
8758 H 62.63929749040629 20.315802867848333 110.74625310962517 H 0.0 **** 0.06
8759 H 63.5196659382692 21.84978666199908 110.54121318920784 H 0.0 **** 0.06
8760 H 64.19411722517866 20.34112666432497 109.87952621976058 H 0.0 **** 0.06
8761 C 60.40469474625009 11.749169144363194 114.68194437281231 C 0.0 **** -0.24
8762 H 61.31660340551308 12.28770010366378 114.42492388417448 H 0.0 **** 0.06
8763 H 59.55846518798333 12.436282627970115 114.65889688036938 H 0.0 **** 0.06
8764 H 60.50199994471457 11.32595548366848 115.68145346287228 H 0.0 **** 0.06
8765 H 60.24133006362263 10.947700266622462 113.96153881468621 H 0.0 **** 0.06
8766 C 34.81476862823223 86.47814518653169 43.017301697368 C 0.0 **** -0.24
8767 H 34.345325638709255 86.9560347626235 42.158086168841436 H 0.0 **** 0.06
8768 H 35.19059232592002 87.24338487335734 43.697106355629614 H 0.0 **** 0.06
8769 H 35.64345028331212 85.85438080911356 42.678636071920735 H 0.0 **** 0.06
8770 H 34.08223541788553 85.85945482588778 43.534306345733654 H 0.0 **** 0.06
8771 C 16.001618698507656 48.58839566302009 4.908441473296238 C 0.0 **** -0.24
8772 H 15.157553977864637 49.057226919347855 4.401496092260647 H 0.0 **** 0.06
8773 H 16.877998518520883 49.23153444002281 4.822484896911618 H 0.0 **** 0.06
8774 H 16.21129457128933 47.62437280178255 4.446449668098413 H 0.0 **** 0.06
8775 H 15.757813998191494 48.44304487273039 5.96002307864415 H 0.0 **** 0.06
8776 C 69.57171936504719 108.27739580433175 23.700241979476004 C 0.0 **** -0.24
8777 H 69.11447092076527 108.84610436321915 22.889420733043494 H 0.0 **** 0.06
8778 H 68.79127811042396 107.89254955210583 24.357494918177053 H 0.0 **** 0.06
8779 H 70.23754614843563 108.92727016133634 24.26820727502667 H 0.0 **** 0.06
8780 H 70.14155718886471 107.44653518671714 23.284568998401483 H 0.0 **** 0.06
8781 C 62.02068170509082 56.78858237556142 103.3562086331691 C 0.0 **** -0.24
8782 H 62.013471830288836 55.93784162616586 104.03732296122826 H 0.0 **** 0.06
8783 H 61.43740331540795 57.60317573654655 103.786079028485 H 0.0 **** 0.06
8784 H 61.5840699948518 56.493305563364686 102.40221840147976 H 0.0 **** 0.06
8785 H 63.04681570280803 57.119266981654846 103.19849302977099 H 0.0 **** 0.06
8786 C 101.06417738774732 54.20265907222992 71.30197834972608 C 0.0 **** -0.24
8787 H 100.65883119429859 54.91095123319127 70.57936694998301 H 0.0 **** 0.06
8788 H 100.85887522479217 54.556580296163276 72.31183591055913 H 0.0 **** 0.06
8789 H 102.14100808701534 54.11529193761953 71.15878211970943 H 0.0 **** 0.06
8790 H 100.5981382598679 53.2287714907782 71.15591329388019 H 0.0 **** 0.06
8791 C 55.57599269699863 110.13741471992256 100.35994906295184 C 0.0 **** -0.24
8792 H 54.633711090678936 109.66381110617293 100.08348826047539 H 0.0 **** 0.06
8793 H 55.464256917007134 110.63253010834542 101.32501769871328 H 0.0 **** 0.06
8794 H 55.84844231490833 110.87322725143329 99.60351554742861 H 0.0 **** 0.06
8795 H 56.356217233914066 109.37967353478918 100.4279232539147 H 0.0 **** 0.06
8796 C 101.66324387524598 24.841414401551262 67.7827811429986 C 0.0 **** -0.24
8797 H 100.58880582485861 24.658022995108553 67.80127542553888 H 0.0 **** 0.06
8798 H 101.89664633825525 25.55001570362461 66.98736734767476 H 0.0 **** 0.06
8799 H 102.18838202235322 23.904268102374132 67.60041818854725 H 0.0 **** 0.06
8800 H 101.97710334237229 25.254618657101446 68.741574163677 H 0.0 **** 0.06
8801 C 14.31126787824033 79.64204709150157 52.69561481034148 C 0.0 **** -0.24
8802 H 14.748090538308816 79.34082320646925 53.647307324468265 H 0.0 **** 0.06
8803 H 14.438341071928562 80.71704214809975 52.56194479614605 H 0.0 **** 0.06
8804 H 13.249907019949205 79.39703290727475 52.68939835681965 H 0.0 **** 0.06
8805 H 14.810950960077491 79.11331748352367 51.88352650915159 H 0.0 **** 0.06
8806 C 34.1338942131668 109.65380661855913 64.70831114794203 C 0.0 **** -0.24
8807 H 34.40501917717714 108.90320089373539 65.45039390988006 H 0.0 **** 0.06
8808 H 33.110523569758385 109.48077417086813 64.37482370940381 H 0.0 **** 0.06
8809 H 34.81103999872286 109.58278608509094 63.85616895626515 H 0.0 **** 0.06
8810 H 34.20976829616967 110.6469876578686 65.15036891694194 H 0.0 **** 0.06
8811 C 97.59153500753231 19.059263357043733 43.56899532049357 C 0.0 **** -0.24
8812 H 98.45042889265747 19.681986269550464 43.82351868956039 H 0.0 **** 0.06
8813 H 97.68117552781331 18.095233427690346 44.068946701367 H 0.0 **** 0.06
8814 H 97.55976075567898 18.90864902101896 42.48992429779014 H 0.0 **** 0.06
8815 H 96.67571180381253 19.554197493266315 43.894614279412906 H 0.0 **** 0.06
8816 C 55.977709598914856 8.953366677870065 103.64360146797065 C 0.0 **** -0.24
8817 H 55.54940193797498 9.005005999842467 104.64415653003078 H 0.0 **** 0.06
8818 H 57.036840560186135 8.700755194665419 103.71452918935299 H 0.0 **** 0.06
8819 H 55.86635691686004 9.918459495285845 103.14973309911343 H 0.0 **** 0.06
8820 H 55.45982478285043 8.18739759731244 103.06624954119278 H 0.0 **** 0.06
8821 C 66.43965206283202 73.19471599430352 3.0701966653254438 C 0.0 **** -0.24
8822 H 66.39459686672748 72.12831090973015 2.8502722433128387 H 0.0 **** 0.06
8823 H 67.10633071949022 73.68456283953954 2.360512095374542 H 0.0 **** 0.06
8824 H 66.81718895958724 73.34048952021612 4.083303097217508 H 0.0 **** 0.06
8825 H 65.44140032272789 73.62419102787528 2.9894304745762135 H 0.0 **** 0.06
8826 C 79.27405957825621 105.91069283419135 62.782506872647616 C 0.0 **** -0.24
8827 H 79.42788361778626 106.95842453212514 62.5237327951055 H 0.0 **** 0.06
8828 H 80.18622835633523 105.3498638891935 62.58040657480872 H 0.0 **** 0.06
8829 H 78.45799455001284 105.50593572608852 62.184684946920484 H 0.0 **** 0.06
8830 H 79.02501242796247 105.83130083992727 63.839921591924565 H 0.0 **** 0.06
8831 C 16.416121173887433 16.23666109950608 61.34708164656752 C 0.0 **** -0.24
8832 H 15.593542393619373 15.649777114685861 61.75457377752639 H 0.0 **** 0.06
8833 H 16.484843563019695 17.184975347615506 61.88039383810536 H 0.0 **** 0.06
8834 H 16.23581342391543 16.427650768385888 60.28882805668178 H 0.0 **** 0.06
8835 H 17.348758375108872 15.685598848779449 61.463622376673754 H 0.0 **** 0.06
8836 C 27.394732343230544 23.884713961531304 67.2480493520204 C 0.0 **** -0.24
8837 H 27.56493640088206 22.825878623439564 67.44211078639164 H 0.0 **** 0.06
8838 H 27.49142872428166 24.44379174697076 68.17846988345123 H 0.0 **** 0.06
8839 H 26.391985748089667 24.02248321441442 66.84263660556215 H 0.0 **** 0.06
8840 H 28.12963447599151 24.245301533762643 66.5285967891645 H 0.0 **** 0.06
8841 C 1.5336253800695374 74.62079674635604 82.53198109878797 C 0.0 **** -0.24
8842 H 1.5701089295944968 75.41839591861722 81.78960040477939 H 0.0 **** 0.06
8843 H 2.1582385387382033 73.78965150790448 82.20361303292827 H 0.0 **** 0.06
8844 H 0.5042442880897227 74.27900313674645 82.64524325836766 H 0.0 **** 0.06
8845 H 1.8993526500699573 74.99586671396878 83.48694001915521 H 0.0 **** 0.06
8846 C 73.0607215883476 94.93818615129946 17.622079022750825 C 0.0 **** -0.24
8847 H 73.31864122310233 94.09064640946751 18.256683129096018 H 0.0 **** 0.06
8848 H 73.78423201178774 95.01843868311967 16.810801788338097 H 0.0 **** 0.06
8849 H 73.07626494985598 95.8533688219243 18.215348550218152 H 0.0 **** 0.06
8850 H 72.06362869943494 94.79050056486062 17.207705676263117 H 0.0 **** 0.06
8851 C 106.84821657903512 22.580287316135013 17.924044163666622 C 0.0 **** -0.24
8852 H 107.616531836847 22.274297757939337 18.63454655347533 H 0.0 **** 0.06
8853 H 106.26236894378286 23.395304865573564 18.351288361857428 H 0.0 **** 0.06
8854 H 106.19385615644802 21.735834077124338 17.709312520499935 H 0.0 **** 0.06
8855 H 107.32064031112438 22.91840718890373 17.001705652235643 H 0.0 **** 0.06
8856 C 88.46975618950307 106.53078258129514 53.03354580204356 C 0.0 **** -0.24
8857 H 87.78887308686001 105.72588083258631 53.31094974529503 H 0.0 **** 0.06
8858 H 88.10666994967772 107.4718037283 53.447948013836324 H 0.0 **** 0.06
8859 H 88.5190825948294 106.60625341559164 51.947925457116604 H 0.0 **** 0.06
8860 H 89.46293273632926 106.31776629395091 53.42870773391202 H 0.0 **** 0.06
8861 C 86.16358623706473 19.615811910184476 46.586293362477534 C 0.0 **** -0.24
8862 H 85.53567018012195 18.73691040398961 46.7310383069302 H 0.0 **** 0.06
8863 H 86.34516875464672 19.76267390589564 45.52135959583376 H 0.0 **** 0.06
8864 H 87.11440842041385 19.47050677338717 47.099977312721364 H 0.0 **** 0.06
8865 H 85.660543915281 20.492490381632194 46.99347980058161 H 0.0 **** 0.06
8866 C 75.83904845635453 73.11712446982551 61.55278556422691 C 0.0 **** -0.24
8867 H 76.27776080175204 74.09266082970765 61.763702307074354 H 0.0 **** 0.06
8868 H 75.23751804880578 73.17861011817604 60.645730299594476 H 0.0 **** 0.06
8869 H 75.20829562390986 72.81523919456322 62.388307940359255 H 0.0 **** 0.06
8870 H 76.63395834327883 72.38433683446681 61.41423194770633 H 0.0 **** 0.06
8871 C 54.58220063968305 62.22975849109196 27.87987094290554 C 0.0 **** -0.24
8872 H 53.53605309024992 62.20325055709117 27.57308395919381 H 0.0 **** 0.06
8873 H 55.16707923976636 61.57711621442303 27.23115168223967 H 0.0 **** 0.06
8874 H 54.66624632298772 61.888723344159644 28.91167950065045 H 0.0 **** 0.06
8875 H 54.95685649209355 63.25082593102684 27.80277441742345 H 0.0 **** 0.06
8876 C 112.15324477373804 25.682576005125433 40.00687013807476 C 0.0 **** -0.24
8877 H 111.97580613706336 26.70963103959319 40.324547634587475 H 0.0 **** 0.06
8878 H 113.21528944675947 25.546194830691874 39.798483603674185 H 0.0 **** 0.06
8879 H 111.57656420307612 25.476998563954666 39.105107983588255 H 0.0 **** 0.06
8880 H 111.84724319766946 24.998564220595632 40.79828182194029 H 0.0 **** 0.06
8881 C 113.06977209916226 65.98937276564396 39.26609824365505 C 0.0 **** -0.24
8882 H 112.093596460235 65.53781933217638 39.08820728434296 H 0.0 **** 0.06
8883 H 113.02324818800179 66.61836072001097 40.15524066643199 H 0.0 **** 0.06
8884 H 113.35134373839995 66.59625009430951 38.40561938359971 H 0.0 **** 0.06
8885 H 113.81163685116888 65.2044296970069 39.41389078897137 H 0.0 **** 0.06
8886 C 74.71743730965555 4.820325090180887 50.28554606666589 C 0.0 **** -0.24
8887 H 73.94517450101755 5.582039775086969 50.17926608032124 H 0.0 **** 0.06
8888 H 75.3933933076234 4.8668187885051 49.432071787908285 H 0.0 **** 0.06
8889 H 74.2524647806147 3.83500859089429 50.32941572671439 H 0.0 **** 0.06
8890 H 75.27839712574011 4.99844109793662 51.20312840150453 H 0.0 **** 0.06
8891 C 44.95996138774525 43.0427026066718 62.409320445174444 C 0.0 **** -0.24
8892 H 45.6705492291041 42.41520007248718 61.87235305103792 H 0.0 **** 0.06
8893 H 45.48274935450175 43.896697367457506 62.84129533777855 H 0.0 **** 0.06
8894 H 44.49265687789813 42.461791313461276 63.205387151634795 H 0.0 **** 0.06
8895 H 44.193402170816356 43.396120911490925 61.72018549152722 H 0.0 **** 0.06
8896 C 65.55389154183659 75.86222073884483 113.97264134628415 C 0.0 **** -0.24
8897 H 65.91310783889925 75.26849045768279 114.81382183707264 H 0.0 **** 0.06
8898 H 64.69001676090133 76.44892108272353 114.28475288495476 H 0.0 **** 0.06
8899 H 65.26751642250656 75.19930762277409 113.15598960794199 H 0.0 **** 0.06
8900 H 66.34573021448658 76.53121528668208 113.6366735982462 H 0.0 **** 0.06
8901 C 85.67017687589612 85.2013063679278 2.978526264498157 C 0.0 **** -0.24
8902 H 85.33985116428897 85.20557605208444 1.9396575220454508 H 0.0 **** 0.06
8903 H 85.46806434883007 84.22509603660751 3.42049971463814 H 0.0 **** 0.06
8904 H 85.1327978636237 85.96998369324223 3.534098520972634 H 0.0 **** 0.06
8905 H 86.73999412684168 85.40456968977672 3.019849300336176 H 0.0 **** 0.06
8906 C 100.19862739048983 25.031936841062475 110.28848244851577 C 0.0 **** -0.24
8907 H 100.78762730359244 24.325438814504906 109.70318745879615 H 0.0 **** 0.06
8908 H 100.41010221205704 26.046822240739345 109.9510159944125 H 0.0 **** 0.06
8909 H 100.45991819439377 24.93697889376034 111.3425088557812 H 0.0 **** 0.06
8910 H 99.13808309735299 24.817702127971174 110.15628999244541 H 0.0 **** 0.06
8911 C 112.9832364976157 40.71918688253453 105.15579349174105 C 0.0 **** -0.24
8912 H 112.39205853463244 41.3479480597576 105.82255403803597 H 0.0 **** 0.06
8913 H 113.65587104593587 41.34494967896222 104.56881796673139 H 0.0 **** 0.06
8914 H 112.3176921454734 40.17323808887804 104.48788322236959 H 0.0 **** 0.06
8915 H 113.56596567755953 40.01212444611221 105.74612472268795 H 0.0 **** 0.06
8916 C 68.19706357957483 44.341414887140814 99.06469374396976 C 0.0 **** -0.24
8917 H 67.15830748353345 44.099088518967655 99.28927393529683 H 0.0 **** 0.06
8918 H 68.82776727954496 43.482626340597285 99.2918138889826 H 0.0 **** 0.06
8919 H 68.50936519331542 45.19290763076112 99.66941712936715 H 0.0 **** 0.06
8920 H 68.29075028038325 44.59321085451156 98.00814882411073 H 0.0 **** 0.06
8921 C 20.801505771192375 31.00921426866759 2.1791822889514467 C 0.0 **** -0.24
8922 H 20.930177913887388 29.929070132600003 2.2497421028220277 H 0.0 **** 0.06
8923 H 20.675662457489242 31.426095819326463 3.1786630615944986 H 0.0 **** 0.06
8924 H 19.918960329670465 31.230660449018472 1.5786186242468663 H 0.0 **** 0.06
8925 H 21.68107436460004 31.449044115423476 1.7095267505080844 H 0.0 **** 0.06
8926 C 44.341941102943736 103.16413057025092 33.07274513277744 C 0.0 **** -0.24
8927 H 44.74361395676607 103.15458075732705 34.085996964366785 H 0.0 **** 0.06
8928 H 44.72667784400477 102.3068670969551 32.521066345468256 H 0.0 **** 0.06
8929 H 44.643563036824844 104.08433972500426 32.57088762210792 H 0.0 **** 0.06
8930 H 43.25417343325989 103.11290896258824 33.11348043434893 H 0.0 **** 0.06
8931 C 108.05503064082632 71.71274084156269 5.819602878664867 C 0.0 **** -0.24
8932 H 107.20727414773802 71.03998636719393 5.685849519772233 H 0.0 **** 0.06
8933 H 108.71536734672341 71.3152088474109 6.589925062415688 H 0.0 **** 0.06
8934 H 107.6934841940523 72.69522740595056 6.122470589488586 H 0.0 **** 0.06
8935 H 108.6009196218765 71.79930780785719 4.8802712442071225 H 0.0 **** 0.06
8936 C 8.280649284694505 16.029536691975693 86.63322522178571 C 0.0 **** -0.24
8937 H 8.973442687065642 15.528586868221254 87.30819487931115 H 0.0 **** 0.06
8938 H 8.551460060034898 15.805393995156166 85.60112146239241 H 0.0 **** 0.06
8939 H 8.329240844935242 17.10631324369328 86.79593564667839 H 0.0 **** 0.06
8940 H 7.266699095652626 15.67923726316674 86.82757775060878 H 0.0 **** 0.06
8941 C 110.76835529687989 73.44821227915266 109.32119559019685 C 0.0 **** -0.24
8942 H 110.54437813732888 73.79298595178471 108.31173192176144 H 0.0 **** 0.06
8943 H 111.82752101356552 73.59878293810554 109.53014060388966 H 0.0 **** 0.06
8944 H 110.5286591841716 72.38813115142344 109.40430595104033 H 0.0 **** 0.06
8945 H 110.17196693603981 74.01252072159284 110.0384859699501 H 0.0 **** 0.06
8946 C 26.84244030286993 7.127248454205642 59.43477335592104 C 0.0 **** -0.24
8947 H 26.24099777550674 6.938925872551053 58.54510876760179 H 0.0 **** 0.06
8948 H 27.395177699781414 6.224830084659416 59.69820470765717 H 0.0 **** 0.06
8949 H 26.18951517220171 7.409189131594985 60.26124285022155 H 0.0 **** 0.06
8950 H 27.543532039583397 7.936929428017308 59.233570416923385 H 0.0 **** 0.06
8951 C 20.970958830953066 27.09736495790051 90.16152965857324 C 0.0 **** -0.24
8952 H 20.97173457906365 28.037910658292517 89.61042281626584 H 0.0 **** 0.06
8953 H 21.997991586549034 26.79628643407011 90.36623420830038 H 0.0 **** 0.06
8954 H 20.477635322928535 26.32866274323058 89.56780135305029 H 0.0 **** 0.06
8955 H 20.436700011010885 27.228999829131567 91.10209613130448 H 0.0 **** 0.06
8956 C 28.18023983984307 104.2242570714065 81.98426838775964 C 0.0 **** -0.24
8957 H 28.7515534937547 105.01678588634753 82.46687205636812 H 0.0 **** 0.06
8958 H 28.751768640525412 103.82220265105802 81.14723990969708 H 0.0 **** 0.06
8959 H 27.235797116663107 104.62860443064773 81.6184476973101 H 0.0 **** 0.06
8960 H 27.980728457658856 103.43040705874041 82.70360828164843 H 0.0 **** 0.06
8961 C 78.31631819719865 1.1228364273702045 90.88877850961546 C 0.0 **** -0.24
8962 H 78.81523210651937 0.712136096532415 90.010815685307 H 0.0 **** 0.06
8963 H 78.90783572941189 0.9045861014576015 91.7777162676411 H 0.0 **** 0.06
8964 H 77.32837305531467 0.6717326507839054 90.9895873580353 H 0.0 **** 0.06
8965 H 78.21303360973002 2.2018153402144716 90.77654073854353 H 0.0 **** 0.06
8966 C 65.84968194620375 62.716045569690806 114.69925198792693 C 0.0 **** -0.24
8967 H 64.80268827346704 62.48854679585753 114.49651776460769 H 0.0 **** 0.06
8968 H 65.91233587256102 63.43813018759319 115.51429857017374 H 0.0 **** 0.06
8969 H 66.30990239264517 63.13593252320551 113.80513979734422 H 0.0 **** 0.06
8970 H 66.37192474233173 61.80232542438141 114.98243478349248 H 0.0 **** 0.06
8971 C 25.835493292714375 20.547174973886882 112.12650092282873 C 0.0 **** -0.24
8972 H 24.87203477728731 20.32552928215722 112.58580196117587 H 0.0 **** 0.06
8973 H 25.7436419956514 20.482829662340578 111.04142549679786 H 0.0 **** 0.06
8974 H 26.577141002088062 19.827126521286743 112.47241053348809 H 0.0 **** 0.06
8975 H 26.149155395830796 21.55321442976299 112.40636569985298 H 0.0 **** 0.06
8976 C 42.67905918067095 71.98631509183781 25.12594209012059 C 0.0 **** -0.24
8977 H 42.40773854506597 71.99885246831838 24.071239586518686 H 0.0 **** 0.06
8978 H 43.050816289977746 70.99671299285102 25.394171411459013 H 0.0 **** 0.06
8979 H 41.80226710474176 72.22134136882916 25.729222994960196 H 0.0 **** 0.06
8980 H 43.45632969617341 72.72889871629212 25.31050034126622 H 0.0 **** 0.06
8981 C 70.68490668884185 5.105511197127029 109.49833985461386 C 0.0 **** -0.24
8982 H 69.9346604895149 4.315192309725617 109.49605615953607 H 0.0 **** 0.06
8983 H 71.62997913721462 4.710935763787148 109.12348265392438 H 0.0 **** 0.06
8984 H 70.82209988924936 5.473055174938764 110.5146207836156 H 0.0 **** 0.06
8985 H 70.35267939284502 5.922428670470509 108.85701585525189 H 0.0 **** 0.06
8986 C 103.18147729238899 35.93096585874105 68.63783169760146 C 0.0 **** -0.24
8987 H 103.83973008011411 36.4687571276296 69.32040652207189 H 0.0 **** 0.06
8988 H 102.17107565635283 35.91200319140165 69.04837597388988 H 0.0 **** 0.06
8989 H 103.5433211003712 34.91050164310377 68.51307841099216 H 0.0 **** 0.06
8990 H 103.17208745972516 36.434264370217534 67.67092942507944 H 0.0 **** 0.06
8991 C 102.49402618697712 105.45217428500322 103.37180677146667 C 0.0 **** -0.24
8992 H 101.67541073843304 104.73864841754482 103.4659881869746 H 0.0 **** 0.06
8993 H 103.4442096365357 104.9365695153146 103.51092069879529 H 0.0 **** 0.06
8994 H 102.38708019825594 106.22900469536575 104.1293816285628 H 0.0 **** 0.06
8995 H 102.46777540569681 105.90504901115519 102.38080529834956 H 0.0 **** 0.06
8996 C 74.27520807580831 114.87531118112949 60.98472087130841 C 0.0 **** -0.24
8997 H 75.1712461937284 115.17919885238547 61.52621930023156 H 0.0 **** 0.06
8998 H 74.30743276635573 115.28014115991095 59.97293786999157 H 0.0 **** 0.06
8999 H 73.39344026197816 115.25472111338658 61.5004602851854 H 0.0 **** 0.06
9000 H 74.22995369816164 113.78672460158018 60.93976633445874 H 0.0 **** 0.06
9001 C 44.58739038624856 103.9286925083426 98.44728825564061 C 0.0 **** -0.24
9002 H 45.65491930108902 104.09014507815927 98.59646140479626 H 0.0 **** 0.06
9003 H 44.42675074083181 102.94004291666288 98.01620531920905 H 0.0 **** 0.06
9004 H 44.195243493891496 104.68880282702732 97.77155556016776 H 0.0 **** 0.06
9005 H 44.07250460447523 103.99481469696586 99.40595507255712 H 0.0 **** 0.06
9006 C 33.98940155894516 101.78742067147637 93.53640384447712 C 0.0 **** -0.24
9007 H 34.454178587878744 102.72844486939213 93.2425257823266 H 0.0 **** 0.06
9008 H 33.83004503811918 101.1688508413525 92.65177196596676 H 0.0 **** 0.06
9009 H 33.03111208720003 101.98917530179757 94.01546849118779 H 0.0 **** 0.06
9010 H 34.64132779535248 101.26285974180473 94.23443932278911 H 0.0 **** 0.06
9011 C 5.309953588337976 61.355215002302884 55.40171566727994 C 0.0 **** -0.24
9012 H 6.057066807158009 61.93727262366912 54.86285736094499 H 0.0 **** 0.06
9013 H 4.313334854827502 61.65261990887305 55.075073673282795 H 0.0 **** 0.06
9014 H 5.411022607451628 61.53491479162608 56.47149813451688 H 0.0 **** 0.06
9015 H 5.457579807786573 60.294704697586695 55.1955555430845 H 0.0 **** 0.06
9016 C 64.61130410818636 90.34222493236135 92.36382706145088 C 0.0 **** -0.24
9017 H 63.66960971799452 90.62408711589032 92.8338418323495 H 0.0 **** 0.06
9018 H 65.39275922032368 90.28741547344313 93.1211865122358 H 0.0 **** 0.06
9019 H 64.88106471654622 91.08727450775872 91.6154128096415 H 0.0 **** 0.06
9020 H 64.50069810037904 89.36881455886018 91.88453154867267 H 0.0 **** 0.06
9021 C 14.193154529280747 94.78732732121279 24.704230572137448 C 0.0 **** -0.24
9022 H 14.779352147329107 94.73996663859856 25.621896015276263 H 0.0 **** 0.06
9023 H 13.132444746571991 94.83619455289676 24.95223532142751 H 0.0 **** 0.06
9024 H 14.385184629335694 93.89820057268777 24.10438261574356 H 0.0 **** 0.06
9025 H 14.475636593886119 95.67494752066803 24.13840833610226 H 0.0 **** 0.06
9026 C 85.98108064629322 66.00260870091125 75.97690709322343 C 0.0 **** -0.24
9027 H 86.95424584628282 66.45109010796409 75.77576658027117 H 0.0 **** 0.06
9028 H 86.10113171665284 64.93020490585505 76.13458227964988 H 0.0 **** 0.06
9029 H 85.31930753066821 66.17321139135976 75.12775008749652 H 0.0 **** 0.06
9030 H 85.549977414197 66.45597771501812 76.87046861520508 H 0.0 **** 0.06
9031 C 104.99656047137462 66.4110444229575 63.47714307698746 C 0.0 **** -0.24
9032 H 104.20678748703257 67.0487493654974 63.874695103424926 H 0.0 **** 0.06
9033 H 104.6296127074025 65.8865232373882 62.59397519221119 H 0.0 **** 0.06
9034 H 105.29301995969826 65.68534754272886 64.23465570261571 H 0.0 **** 0.06
9035 H 105.85601238608449 67.02408309087193 63.204983974240406 H 0.0 **** 0.06
9036 C 67.05510109707149 64.50885123475916 80.2320190674393 C 0.0 **** -0.24
9037 H 65.97695383240529 64.34925003988143 80.2535481589602 H 0.0 **** 0.06
9038 H 67.28909661318386 65.46671348122153 80.69669806826596 H 0.0 **** 0.06
9039 H 67.40048039890848 64.51197484680016 79.19806067850146 H 0.0 **** 0.06
9040 H 67.55077209730649 63.707800966186525 80.77864249440452 H 0.0 **** 0.06
9041 C 92.69819171804102 91.04199579724258 72.44528884851161 C 0.0 **** -0.24
9042 H 92.19093545829804 91.51840250816699 71.60645377753954 H 0.0 **** 0.06
9043 H 93.2855082380571 91.78565687712427 72.98443733366923 H 0.0 **** 0.06
9044 H 93.3576951037677 90.25842234784191 72.07368499186757 H 0.0 **** 0.06
9045 H 91.9579024430829 90.60668140415896 73.11686441953347 H 0.0 **** 0.06
9046 C 112.43275983314689 109.82582058891909 46.084968100878314 C 0.0 **** -0.24
9047 H 113.5150456682066 109.95449564825208 46.08576996127232 H 0.0 **** 0.06
9048 H 112.19379320669333 108.76923369187783 45.96416813016381 H 0.0 **** 0.06
9049 H 112.00112196716663 110.39341195739901 45.26094485477017 H 0.0 **** 0.06
9050 H 112.02406942200267 110.18601124752186 47.02879454750149 H 0.0 **** 0.06
9051 C 19.901155680422278 97.15967251213358 95.84107999885305 C 0.0 **** -0.24
9052 H 20.0016068229379 96.4259271218505 95.04195812733252 H 0.0 **** 0.06
9053 H 18.88961457372494 97.56698499617373 95.83368102337255 H 0.0 **** 0.06
9054 H 20.61888818380595 97.96525324243036 95.68831790662145 H 0.0 **** 0.06
9055 H 20.092458003658408 96.67940916732971 96.80109257102865 H 0.0 **** 0.06
9056 C 86.8037767705332 20.93549306193546 67.47259294618193 C 0.0 **** -0.24
9057 H 87.85656872659831 21.06066172416064 67.21887760405646 H 0.0 **** 0.06
9058 H 86.47373127783123 21.779124784451767 68.07934584723348 H 0.0 **** 0.06
9059 H 86.67270869960174 20.010453512732738 68.03325728179598 H 0.0 **** 0.06
9060 H 86.2120553711498 20.892704249026394 66.55866001209729 H 0.0 **** 0.06
9061 C 10.342645926553786 85.3604211171577 95.49456471801204 C 0.0 **** -0.24
9062 H 10.225068191228758 85.54954688571183 96.56184936014574 H 0.0 **** 0.06
9063 H 11.403245314544137 85.34125162251564 95.2429736858196 H 0.0 **** 0.06
9064 H 9.847451543287121 86.14997440214961 94.92866390524682 H 0.0 **** 0.06
9065 H 9.892820957566101 84.39856599007095 95.24548471454614 H 0.0 **** 0.06
9066 C 70.72098093905113 13.231128419339655 2.1923168964634954 C 0.0 **** -0.24
9067 H 70.44121640458663 13.663223627973025 3.1531327436900938 H 0.0 **** 0.06
9068 H 70.14624905325621 12.320557132430451 2.023809535298213 H 0.0 **** 0.06
9069 H 71.78503756240251 12.994503089846717 2.195993395240322 H 0.0 **** 0.06
9070 H 70.51017597793943 13.947035018893445 1.397674473024125 H 0.0 **** 0.06
9071 C 33.17306836062593 66.32033787770541 22.170000953714634 C 0.0 **** -0.24
9072 H 33.5098927904884 67.2677599615647 22.590944252894275 H 0.0 **** 0.06
9073 H 32.10922009080127 66.19068984972165 22.373315746644295 H 0.0 **** 0.06
9074 H 33.73200968036651 65.50185153912332 22.62321971800216 H 0.0 **** 0.06
9075 H 33.33991908108921 66.32174096154176 21.092598775819937 H 0.0 **** 0.06
9076 C 76.55135993150638 19.47511766669706 65.16678007115803 C 0.0 **** -0.24
9077 H 76.88863116851404 18.967143172022748 64.26286712070367 H 0.0 **** 0.06
9078 H 76.8441485784436 18.893128405017258 66.04069761040256 H 0.0 **** 0.06
9079 H 75.46642409984294 19.575114713719344 65.14362065533675 H 0.0 **** 0.06
9080 H 77.0062739494127 20.463970283179975 65.21860918390217 H 0.0 **** 0.06
9081 C 111.47988944513197 92.09703343100827 94.52910719018143 C 0.0 **** -0.24
9082 H 112.29517824811722 92.78588719572504 94.3068860371813 H 0.0 **** 0.06
9083 H 111.35032477692758 91.4070908235973 93.69462902415177 H 0.0 **** 0.06
9084 H 110.56015845387321 92.66032446760535 94.68203717385626 H 0.0 **** 0.06
9085 H 111.71627403848854 91.53437408277713 95.43250542120074 H 0.0 **** 0.06
9086 C 18.51801250441443 6.928881788417016 18.929209688104898 C 0.0 **** -0.24
9087 H 17.786099828324765 7.732147685165273 18.852677255946915 H 0.0 **** 0.06
9088 H 19.192355924437326 7.13030034330211 19.76164952434721 H 0.0 **** 0.06
9089 H 19.090747496247545 6.87051708528702 18.00342042035125 H 0.0 **** 0.06
9090 H 18.00359914978816 5.983175760528923 19.098063260302474 H 0.0 **** 0.06
9091 C 105.06939956159904 77.87852892878155 30.092748405350875 C 0.0 **** -0.24
9092 H 104.99519545833891 78.01951453675741 31.171278141780647 H 0.0 **** 0.06
9093 H 105.06386399553722 76.81172297696128 29.865136727880753 H 0.0 **** 0.06
9094 H 105.99614484011636 78.32319036150597 29.7311811112732 H 0.0 **** 0.06
9095 H 104.22108123502662 78.35899835386707 29.605347441296658 H 0.0 **** 0.06
9096 C 66.94572583013894 87.86581776631067 115.5570791952718 C 0.0 **** -0.24
9097 H 66.5455919938965 88.1856252206261 116.51873277420916 H 0.0 **** 0.06
9098 H 66.18891088480882 87.29082844202668 115.02263741061235 H 0.0 **** 0.06
9099 H 67.82762651984322 87.24571971478395 115.71843019653812 H 0.0 **** 0.06
9100 H 67.220435613034 88.74165694561725 114.96927325810388 H 0.0 **** 0.06
9101 C 69.78653253729226 36.7770392165591 48.68243933964905 C 0.0 **** -0.24
9102 H 69.9728647047769 37.70629296638211 49.221706805129685 H 0.0 **** 0.06
9103 H 70.48731708882514 36.692707447731664 47.85229918517331 H 0.0 **** 0.06
9104 H 68.765776073072 36.77917932804621 48.29816170439884 H 0.0 **** 0.06
9105 H 69.91852809270387 35.93263430449099 49.358076080173134 H 0.0 **** 0.06
9106 C 70.79327419692748 80.42013679086922 72.84536111676942 C 0.0 **** -0.24
9107 H 70.61502897589975 79.50021857232271 73.40167814219663 H 0.0 **** 0.06
9108 H 69.94300240062637 81.09057548168376 72.97168374241275 H 0.0 **** 0.06
9109 H 70.91799903113002 80.18526019872084 71.78774997726674 H 0.0 **** 0.06
9110 H 71.69642900172607 80.9016101317778 73.21979983318238 H 0.0 **** 0.06
9111 C 37.790365676604466 73.67261504308254 73.23131460910678 C 0.0 **** -0.24
9112 H 37.575135909817135 73.46137310255872 72.18400781217552 H 0.0 **** 0.06
9113 H 36.871090423794044 73.96547929234066 73.73880264937607 H 0.0 **** 0.06
9114 H 38.51614436229322 74.48243364389396 73.29709924470848 H 0.0 **** 0.06
9115 H 38.198987487725674 72.77945561120964 73.70553827326364 H 0.0 **** 0.06
9116 C 77.97952127130765 65.96142850153478 4.532549501955941 C 0.0 **** -0.24
9117 H 78.85694306334409 66.10897661158555 3.902070186351011 H 0.0 **** 0.06
9118 H 77.23087046281148 65.38958618751076 3.984042526110102 H 0.0 **** 0.06
9119 H 77.56533520964871 66.93074336023102 4.8104256946673445 H 0.0 **** 0.06
9120 H 78.2660414778623 65.41708468406654 5.432510360486447 H 0.0 **** 0.06
9121 C 39.381044012797446 90.69699260952615 53.63175706027966 C 0.0 **** -0.24
9122 H 39.732685534974955 91.72818404312883 53.63956490770649 H 0.0 **** 0.06
9123 H 39.52491321595378 90.27083573073915 52.63857502449553 H 0.0 **** 0.06
9124 H 38.32118095406561 90.67369187946315 53.88700395659491 H 0.0 **** 0.06
9125 H 39.942947763471665 90.11519197886281 54.361866441761066 H 0.0 **** 0.06
9126 C 88.19204136876249 52.40306969895926 36.104525448244544 C 0.0 **** -0.24
9127 H 87.19833437589818 51.98908339028765 36.27322120060927 H 0.0 **** 0.06
9128 H 88.1091099001336 53.4697558135415 35.89276204165981 H 0.0 **** 0.06
9129 H 88.65683407094093 51.898994822249335 35.25697082590892 H 0.0 **** 0.06
9130 H 88.80321875337381 52.25560058895206 36.99468138696864 H 0.0 **** 0.06
9131 C 13.717029293361804 108.02284102394168 100.36961512777108 C 0.0 **** -0.24
9132 H 12.733380798329335 107.56144645981578 100.45734340708941 H 0.0 **** 0.06
9133 H 14.337763021441646 107.71704805208822 101.21229768874724 H 0.0 **** 0.06
9134 H 13.609913129385745 109.10761825063679 100.37278640268241 H 0.0 **** 0.06
9135 H 14.185384985400361 107.70597042446667 99.43841565693822 H 0.0 **** 0.06
9136 C 4.089808028720171 42.80693429958677 91.46564448162937 C 0.0 **** -0.24
9137 H 4.581085729623055 42.08812961578711 92.12172193304488 H 0.0 **** 0.06
9138 H 3.9873810847506803 43.76083920861396 91.98403888732821 H 0.0 **** 0.06
9139 H 3.103064341717527 42.433162540135015 91.19247216272487 H 0.0 **** 0.06
9140 H 4.688912506073322 42.944274558523745 90.56521677295399 H 0.0 **** 0.06
9141 C 100.37406572830005 88.29010120004011 37.26944088499471 C 0.0 **** -0.24
9142 H 100.14169910068495 89.2270610506921 37.77578913734891 H 0.0 **** 0.06
9143 H 99.73955107891214 87.49671603233011 37.6630760305369 H 0.0 **** 0.06
9144 H 101.42147717101801 88.03633430441727 37.438169337909244 H 0.0 **** 0.06
9145 H 100.195807177745 88.4017311431621 36.19984974433308 H 0.0 **** 0.06
9146 C 64.36440561504531 30.667118290046034 96.47824988596119 C 0.0 **** -0.24
9147 H 63.4541553835962 30.078414660442718 96.36826326474687 H 0.0 **** 0.06
9148 H 65.20660274063326 30.117045913353223 96.0588718746896 H 0.0 **** 0.06
9149 H 64.54624581469409 30.86066933827479 97.53487121057401 H 0.0 **** 0.06
9150 H 64.24984147198518 31.613815726218036 95.9505155190028 H 0.0 **** 0.06
9151 C 31.51388776489484 0.6971973711906685 37.99513247447078 C 0.0 **** -0.24
9152 H 31.29110332735717 1.5772293211691846 37.390936749047455 H 0.0 **** 0.06
9153 H 30.613655835979664 0.3809321813232174 38.521891762377095 H 0.0 **** 0.06
9154 H 32.29175724907679 0.9405898085252744 38.71815715131822 H 0.0 **** 0.06
9155 H 31.858530304815943 -0.10981032234582244 37.3471519503471 H 0.0 **** 0.06
9156 C 30.251428761167418 104.7780540318796 34.93647446983874 C 0.0 **** -0.24
9157 H 29.431308186827756 104.0677454996239 34.830033841678585 H 0.0 **** 0.06
9158 H 30.521512078929135 105.17155871899956 33.956472111626056 H 0.0 **** 0.06
9159 H 31.11237147648793 104.27569631229699 35.377045568646054 H 0.0 **** 0.06
9160 H 29.938901677032568 105.59781858776655 35.584080449070996 H 0.0 **** 0.06
9161 C 50.95330085425065 108.50052061315031 113.65838365038138 C 0.0 **** -0.24
9162 H 50.20442219939086 107.82796138207111 113.24075778355862 H 0.0 **** 0.06
9163 H 50.54122556463086 109.50794799546452 113.72185502728088 H 0.0 **** 0.06
9164 H 51.83410716280082 108.50666348881991 113.01639995882168 H 0.0 **** 0.06
9165 H 51.23278862417244 108.15875838980072 114.65450345755056 H 0.0 **** 0.06
9166 C 95.77656068712838 111.92023726515649 22.70993835658416 C 0.0 **** -0.24
9167 H 95.8476256497676 112.61113888090645 23.549934354246574 H 0.0 **** 0.06
9168 H 95.91870880386739 112.4668117802843 21.777372650394028 H 0.0 **** 0.06
9169 H 94.79407250011494 111.44865126025286 22.70957467158263 H 0.0 **** 0.06
9170 H 96.54688075574728 111.15472866866148 22.804199403074506 H 0.0 **** 0.06
9171 C 101.612166557239 103.36748976657856 92.79438253724817 C 0.0 **** -0.24
9172 H 102.45992959211853 103.97484456437859 93.11311848026345 H 0.0 **** 0.06
9173 H 100.72968329458723 104.00061119127201 92.6978415901876 H 0.0 **** 0.06
9174 H 101.42396489185603 102.59032497415093 93.53406590440211 H 0.0 **** 0.06
9175 H 101.83718318344751 102.90799825169294 91.83235781214754 H 0.0 **** 0.06
9176 C 32.433900303423854 93.99524233050055 90.61958074849058 C 0.0 **** -0.24
9177 H 32.52101802800567 92.91119113837027 90.54474704298988 H 0.0 **** 0.06
9178 H 32.997650710554154 94.46074077488292 89.80999855094316 H 0.0 **** 0.06
9179 H 32.834424720542444 94.32541659667872 91.57785768036736 H 0.0 **** 0.06
9180 H 31.38553674471399 94.28234373669287 90.54462656840367 H 0.0 **** 0.06
9181 C 85.0115142108711 44.93177190320125 81.76465637124181 C 0.0 **** -0.24
9182 H 85.8643655139298 44.397414010608315 82.18439784764155 H 0.0 **** 0.06
9183 H 85.30162381003996 45.394511057553245 80.82146739870342 H 0.0 **** 0.06
9184 H 84.68562526806524 45.70258654218617 82.46373705225909 H 0.0 **** 0.06
9185 H 84.19454656416208 44.231852232690244 81.5897053396044 H 0.0 **** 0.06
9186 C 113.43452536483028 97.00765236009886 37.30401355268728 C 0.0 **** -0.24
9187 H 112.93763371688487 97.95104285704804 37.53118229344403 H 0.0 **** 0.06
9188 H 113.80133610985973 96.55895466483713 38.22670134401227 H 0.0 **** 0.06
9189 H 114.27215604688325 97.1912064115972 36.63039544107522 H 0.0 **** 0.06
9190 H 112.72651278004764 96.33039012305613 36.8258215134484 H 0.0 **** 0.06
9191 C 80.19076048931834 102.21185418252134 6.769761636273472 C 0.0 **** -0.24
9192 H 81.24227425097655 102.45981040579113 6.6296723797226775 H 0.0 **** 0.06
9193 H 79.77474962676195 102.83071913470928 7.56632351560215 H 0.0 **** 0.06
9194 H 80.09866913120916 101.16052398874456 7.041376304800735 H 0.0 **** 0.06
9195 H 79.6473364803058 102.3969600382078 5.843829319217775 H 0.0 **** 0.06
9196 C 106.58078319306186 104.43619350093915 29.697723532025975 C 0.0 **** -0.24
9197 H 106.74048563471165 103.36143593885785 29.616392006585386 H 0.0 **** 0.06
9198 H 106.63644771609343 104.73283939587218 30.745851061038138 H 0.0 **** 0.06
9199 H 105.59791596908657 104.68910021899875 29.299929900416316 H 0.0 **** 0.06
9200 H 107.34899953367905 104.96172676899482 29.13055954567153 H 0.0 **** 0.06
9201 C 106.41661182306642 54.48498821603576 17.15547272998603 C 0.0 **** -0.24
9202 H 106.27294798612589 55.554380888014094 17.309633567071245 H 0.0 **** 0.06
9203 H 107.37464950312744 54.18229350119625 17.577865029176934 H 0.0 **** 0.06
9204 H 106.40578738337736 54.26834698696088 16.086919967451934 H 0.0 **** 0.06
9205 H 105.61257477193497 53.93645718776718 17.645911995976405 H 0.0 **** 0.06
9206 C 64.63643046466268 37.875558098473164 91.75352948401047 C 0.0 **** -0.24
9207 H 64.32210103193273 37.84308849342989 92.79659049435668 H 0.0 **** 0.06
9208 H 65.00158386763195 38.87523838803605 91.51454839238346 H 0.0 **** 0.06
9209 H 63.78895462763978 37.634593293490326 91.11101467520842 H 0.0 **** 0.06
9210 H 65.43262890771047 37.14962758888197 91.59032269224235 H 0.0 **** 0.06
9211 C 92.26981808643454 17.122804292113337 42.33334658021312 C 0.0 **** -0.24
9212 H 92.80452736900962 16.807394306435796 41.437106038274806 H 0.0 **** 0.06
9213 H 92.92219330059805 17.020261871151124 43.200171332600036 H 0.0 **** 0.06
9214 H 91.38616577220569 16.49876914972444 42.467392430483756 H 0.0 **** 0.06
9215 H 91.96623318773369 18.164717717376675 42.227312490592055 H 0.0 **** 0.06
9216 C 40.34505681946865 83.40922459535989 86.99857130020848 C 0.0 **** -0.24
9217 H 41.11606807637912 83.35914215623347 87.76750234517101 H 0.0 **** 0.06
9218 H 39.46456692239502 83.91130377437673 87.40000325647765 H 0.0 **** 0.06
9219 H 40.07806268009267 82.39922757038966 86.68617773029757 H 0.0 **** 0.06
9220 H 40.72260320267702 83.96626815599183 86.14156738640617 H 0.0 **** 0.06
9221 C 23.803933366027707 90.14532580460155 52.668819841161394 C 0.0 **** -0.24
9222 H 23.61875176374879 89.61857295494025 53.60474491387555 H 0.0 **** 0.06
9223 H 24.653456567765375 90.81724965911471 52.79219015368136 H 0.0 **** 0.06
9224 H 22.921050720610197 90.72112919266277 52.394934591780356 H 0.0 **** 0.06
9225 H 24.02495448582488 89.42176205709634 51.8830286334543 H 0.0 **** 0.06
9226 C 85.60672910838218 64.8597930029863 24.03778316260832 C 0.0 **** -0.24
9227 H 86.3253038836354 64.0603133447571 23.857841197337947 H 0.0 **** 0.06
9228 H 84.79975166341899 64.4876523077047 24.66953572551536 H 0.0 **** 0.06
9229 H 85.19759994573826 65.20223969086555 23.08797419553454 H 0.0 **** 0.06
9230 H 86.10624135523398 65.68994291313311 24.538802409589067 H 0.0 **** 0.06
9231 C 43.723135750929686 71.04937997883405 36.71955489615615 C 0.0 **** -0.24
9232 H 43.745265236515166 71.4238437933808 37.743148424722754 H 0.0 **** 0.06
9233 H 44.139346164057116 70.04184818417122 36.692311819435666 H 0.0 **** 0.06
9234 H 44.314659015769195 71.70496756512748 36.08036031921235 H 0.0 **** 0.06
9235 H 42.693205521788514 71.02622386309106 36.36366016022473 H 0.0 **** 0.06
9236 C 62.96519151238428 98.68103018096156 4.907711525912191 C 0.0 **** -0.24
9237 H 63.839024309720656 98.23151411430081 5.380033596426983 H 0.0 **** 0.06
9238 H 62.45026356664613 97.93014857359151 4.30827963874998 H 0.0 **** 0.06
9239 H 63.281551274907315 99.50426993931376 4.266903930504242 H 0.0 **** 0.06
9240 H 62.29067832534594 99.0582836450759 5.676281842782714 H 0.0 **** 0.06
9241 C 35.486172836999074 78.53442088382212 75.24243254140418 C 0.0 **** -0.24
9242 H 36.162902782926395 78.91834584942848 76.0055660384258 H 0.0 **** 0.06
9243 H 35.984562851155275 78.55117322261714 74.27304958165763 H 0.0 **** 0.06
9244 H 34.592577664015785 79.15908521310587 75.2025599686952 H 0.0 **** 0.06
9245 H 35.20344966123518 77.51114575213006 75.48909658725708 H 0.0 **** 0.06
9246 C 101.18635568461744 81.82334117570036 39.03636737791123 C 0.0 **** -0.24
9247 H 101.17466136773811 80.91054402656238 38.441289967274486 H 0.0 **** 0.06
9248 H 100.16276542913027 82.1417090350401 39.23364495920907 H 0.0 **** 0.06
9249 H 101.71193769562345 82.60668211091195 38.48971381628451 H 0.0 **** 0.06
9250 H 101.69684483180214 81.63491901107903 39.98119726344217 H 0.0 **** 0.06
9251 C 59.50169829651037 104.02752757485246 45.51762809144654 C 0.0 **** -0.24
9252 H 58.5731815421138 104.3659175787925 45.05935926834016 H 0.0 **** 0.06
9253 H 59.74160721202523 103.02657258050505 45.15958711537638 H 0.0 **** 0.06
9254 H 59.385166614647986 104.00805898098457 46.60142231619764 H 0.0 **** 0.06
9255 H 60.30785812701177 104.71107174504408 45.25177995415996 H 0.0 **** 0.06
9256 C 46.659890350579246 24.113004278779876 40.1750253640289 C 0.0 **** -0.24
9257 H 47.25027353170324 23.2559011680533 39.850958215797505 H 0.0 **** 0.06
9258 H 45.605534011166554 23.923687135606173 39.97426613887845 H 0.0 **** 0.06
9259 H 46.98043391891247 25.000873799422216 39.62947873708481 H 0.0 **** 0.06
9260 H 46.80417685805091 24.271230690345412 41.243126614152345 H 0.0 **** 0.06
9261 C 94.08413544970972 74.14497558307767 70.91398989012077 C 0.0 **** -0.24
9262 H 94.08404437839062 73.05560423949626 70.88058918640968 H 0.0 **** 0.06
9263 H 93.2746911350988 74.48894678580827 71.55789459495185 H 0.0 **** 0.06
9264 H 93.94268605679241 74.5397714294247 69.9078776375141 H 0.0 **** 0.06
9265 H 95.03791132620671 74.49442543747276 71.31053495032205 H 0.0 **** 0.06
9266 C 102.65385059432633 0.6606087952121271 41.7678512411997 C 0.0 **** -0.24
9267 H 102.23618807362556 1.5745941932125902 42.19011924407843 H 0.0 **** 0.06
9268 H 102.00084548507783 -0.18014642903693812 42.00466468283863 H 0.0 **** 0.06
9269 H 103.64317322002779 0.4833214252227407 42.1927296157981 H 0.0 **** 0.06
9270 H 102.73635314635904 0.7647395236828771 40.686833401817935 H 0.0 **** 0.06
9271 C 35.46796389646511 5.959428532972439 83.75150701814566 C 0.0 **** -0.24
9272 H 35.03964377259018 5.094743938991371 83.24469248339511 H 0.0 **** 0.06
9273 H 36.201086734644434 6.435489271876392 83.09950878669973 H 0.0 **** 0.06
9274 H 35.95384982106518 5.636929963465619 84.6719232538612 H 0.0 **** 0.06
9275 H 34.67608305989319 6.6695200096103235 83.98867227347343 H 0.0 **** 0.06
9276 C 85.29793758181523 92.34330643218243 21.306325495901206 C 0.0 **** -0.24
9277 H 84.7039319662797 91.48949569666797 21.632633820504253 H 0.0 **** 0.06
9278 H 84.68338170930485 92.99831746793745 20.68823309672308 H 0.0 **** 0.06
9279 H 86.15184401320451 91.99239654421609 20.727676590512516 H 0.0 **** 0.06
9280 H 85.6520933824687 92.89440214198919 22.17844064509906 H 0.0 **** 0.06
9281 C 24.3647791651141 5.680112784465109 29.114968577015134 C 0.0 **** -0.24
9282 H 25.41959885688658 5.525620071679896 29.344653230230257 H 0.0 **** 0.06
9283 H 24.199498141346567 6.724427318068109 28.85051087193186 H 0.0 **** 0.06
9284 H 23.762844842358902 5.425278490769614 29.987572233950047 H 0.0 **** 0.06
9285 H 24.078575778376887 5.042994865258805 28.278362390059748 H 0.0 **** 0.06
9286 C 5.357401103207565 99.31246448211098 48.7332992712052 C 0.0 **** -0.24
9287 H 5.808365871474109 98.42175593711158 49.16890290710086 H 0.0 **** 0.06
9288 H 5.788308696587194 99.49232589724119 47.74767959321977 H 0.0 **** 0.06
9289 H 5.551806112089096 100.16982678681526 49.377383972717126 H 0.0 **** 0.06
9290 H 4.28097678339914 99.16601294283251 48.637825453375825 H 0.0 **** 0.06
9291 C 11.431486430231729 17.099584274764638 86.32440598995287 C 0.0 **** -0.24
9292 H 11.38287185808845 16.26067676369322 87.01901983566808 H 0.0 **** 0.06
9293 H 12.461337030720728 17.237137369996393 85.99365761645659 H 0.0 **** 0.06
9294 H 11.08605440086302 18.005196014071615 86.82497042527464 H 0.0 **** 0.06
9295 H 10.795991468558043 16.895665562226657 85.46355247413996 H 0.0 **** 0.06
9296 C 21.638866965675874 3.6434991591076855 16.80868979155065 C 0.0 **** -0.24
9297 H 20.57577497375061 3.6390732434761652 16.566381254118085 H 0.0 **** 0.06
9298 H 22.086376677759006 4.574512019555064 16.460835421789568 H 0.0 **** 0.06
9299 H 22.125856047497507 2.8003869585375405 16.319828930132786 H 0.0 **** 0.06
9300 H 21.765318091513308 3.5606655354748504 17.887685713581845 H 0.0 **** 0.06
9301 C 1.6054097175968707 30.55446290335172 57.34829573195397 C 0.0 **** -0.24
9302 H 1.4509708798142071 29.658179667581813 56.747989535958126 H 0.0 **** 0.06
9303 H 1.782666088186886 30.27091405383122 58.38531537184126 H 0.0 **** 0.06
9304 H 0.7189317477550219 31.187052977445646 57.29057890687412 H 0.0 **** 0.06
9305 H 2.4682101456292003 31.10176492656438 56.96817799905435 H 0.0 **** 0.06
9306 C 80.26099028783901 109.64994719033132 62.06980117521937 C 0.0 **** -0.24
9307 H 80.96555766316501 110.4451608271911 62.31239056619643 H 0.0 **** 0.06
9308 H 80.16120345247018 108.98059554582181 62.92501845203584 H 0.0 **** 0.06
9309 H 80.62814148260614 109.08893276350528 61.210612984728485 H 0.0 **** 0.06
9310 H 79.28993584911204 110.08404417803163 61.833211669333366 H 0.0 **** 0.06
9311 C 19.27466309760598 22.31249360201099 62.14082410439384 C 0.0 **** -0.24
9312 H 19.279700723484694 23.220659404115054 62.742746022394044 H 0.0 **** 0.06
9313 H 20.297107522178834 22.060931056245366 61.8555218954405 H 0.0 **** 0.06
9314 H 18.675927703538676 22.47327160091109 61.24443138748187 H 0.0 **** 0.06
9315 H 18.84794840598704 21.494811580782596 62.72148082223546 H 0.0 **** 0.06
9316 C 15.235140856807874 29.396616091382725 111.52040126134051 C 0.0 **** -0.24
9317 H 14.39321102261485 29.7779319734546 110.94262110844036 H 0.0 **** 0.06
9318 H 14.886515941614846 29.082047742476405 112.50470865623231 H 0.0 **** 0.06
9319 H 15.983497065775623 30.182205074177617 111.63274264148151 H 0.0 **** 0.06
9320 H 15.67577885705785 28.545873094927103 111.00137234484805 H 0.0 **** 0.06
9321 C 110.13858037028524 78.7131865929499 27.988554637330083 C 0.0 **** -0.24
9322 H 109.7372130034812 78.82390891053932 28.995139095833338 H 0.0 **** 0.06
9323 H 109.68542957727121 77.84439843327557 27.511145961275062 H 0.0 **** 0.06
9324 H 111.21884568760234 78.5772620090302 28.040254800767997 H 0.0 **** 0.06
9325 H 109.91195996394472 79.6068363523001 27.40733020966067 H 0.0 **** 0.06
9326 C 36.82697784924474 61.742738539439586 110.86918870174577 C 0.0 **** -0.24
9327 H 37.728321759480906 61.15198976145717 111.03364723989358 H 0.0 **** 0.06
9328 H 36.02746376453936 61.09289479165301 110.51175066097043 H 0.0 **** 0.06
9329 H 37.02856085481116 62.51316948001346 110.1247640736777 H 0.0 **** 0.06
9330 H 36.523885081267224 62.212269710476505 111.80447141265729 H 0.0 **** 0.06
9331 C 69.15478369520957 102.06496967543032 38.80191825027589 C 0.0 **** -0.24
9332 H 70.2297276636662 102.23835350403431 38.84094400059166 H 0.0 **** 0.06
9333 H 68.6455084265122 102.99948730620861 38.56240173003084 H 0.0 **** 0.06
9334 H 68.80963626884628 101.70015884289202 39.76891815678027 H 0.0 **** 0.06
9335 H 68.93396349276355 101.32414176953654 38.033462001202054 H 0.0 **** 0.06
9336 C 45.43352335557262 85.36773359215485 39.4858858127447 C 0.0 **** -0.24
9337 H 44.42436835714901 85.19473378414352 39.857603068728736 H 0.0 **** 0.06
9338 H 45.4868656261545 86.3549425119196 39.026706420018286 H 0.0 **** 0.06
9339 H 45.68393534271286 84.60824368282658 38.74557139326822 H 0.0 **** 0.06
9340 H 46.14051360778791 85.31478733325571 40.31423723031469 H 0.0 **** 0.06
9341 C 56.38693332895326 1.3740643574173248 90.19980103242669 C 0.0 **** -0.24
9342 H 55.53471543196105 1.5503279117756534 89.54350432536042 H 0.0 **** 0.06
9343 H 56.136121321530425 1.6877877830679466 91.21370071808445 H 0.0 **** 0.06
9344 H 57.24369336141689 1.9477205849789954 89.84394512435935 H 0.0 **** 0.06
9345 H 56.63470693498573 0.31300555785814765 90.19780874607393 H 0.0 **** 0.06
9346 C 75.26257273668199 41.58035557018468 16.090061476184587 C 0.0 **** -0.24
9347 H 74.92187651847615 41.42689831237021 17.114287302280985 H 0.0 **** 0.06
9348 H 74.59220251798837 41.06121149934853 15.404043372366772 H 0.0 **** 0.06
9349 H 76.27200139644856 41.186595705572074 15.980702517971395 H 0.0 **** 0.06
9350 H 75.26077141648082 42.646642264432444 15.862685076032392 H 0.0 **** 0.06
9351 C 13.12448508261793 20.26962303699372 92.07960502410009 C 0.0 **** -0.24
9352 H 14.12971175911645 20.643705088982955 91.8835577236506 H 0.0 **** 0.06
9353 H 12.396238679998792 21.04891235567544 91.85197601543496 H 0.0 **** 0.06
9354 H 13.040217133072375 19.988832794142695 93.12967565705452 H 0.0 **** 0.06
9355 H 12.932678254126028 19.398024640009908 91.45367376732696 H 0.0 **** 0.06
9356 C 61.999103449292136 107.48914504759318 54.31289355621375 C 0.0 **** -0.24
9357 H 61.85324505612266 106.41763351070897 54.17410976029612 H 0.0 **** 0.06
9358 H 61.90292924006798 107.73435460639118 55.37196131265297 H 0.0 **** 0.06
9359 H 61.247772428643316 108.03531773547138 53.743375696444176 H 0.0 **** 0.06
9360 H 62.99412133806254 107.76838139638221 53.96446552566653 H 0.0 **** 0.06
9361 C 12.629768383115248 76.86083865963609 71.84073330400184 C 0.0 **** -0.24
9362 H 11.947869833987852 77.45874435090649 72.44535442819506 H 0.0 **** 0.06
9363 H 12.607507258754111 77.21607497015 70.810282827896 H 0.0 **** 0.06
9364 H 12.321516885769483 75.81492707099252 71.87183990235218 H 0.0 **** 0.06
9365 H 13.641375717065642 76.95302088395007 72.23555044170752 H 0.0 **** 0.06
9366 C 10.010518774246393 73.4771194152276 21.081276636120123 C 0.0 **** -0.24
9367 H 10.986355764274265 73.58566031147524 20.608923438739907 H 0.0 **** 0.06
9368 H 9.564360510879084 74.46198913587864 21.225845288202578 H 0.0 **** 0.06
9369 H 10.127800741928965 72.98585188616141 22.04771223438526 H 0.0 **** 0.06
9370 H 9.36248072444397 72.8750672729517 20.443537256254203 H 0.0 **** 0.06
9371 C 61.640284193660705 20.288578575568096 80.96578589221531 C 0.0 **** -0.24
9372 H 61.22501683109874 19.294091398170224 81.1278747697499 H 0.0 **** 0.06
9373 H 60.83484973209124 21.023471535628346 80.96629455426995 H 0.0 **** 0.06
9374 H 62.15542124166751 20.31456655137478 80.0048675423501 H 0.0 **** 0.06
9375 H 62.345827230870896 20.521551879924033 81.76333276785928 H 0.0 **** 0.06
9376 C 75.96083740361252 78.85161143512629 114.2987012703029 C 0.0 **** -0.24
9377 H 75.20130540293705 78.76127205211813 113.52216119548478 H 0.0 **** 0.06
9378 H 76.10348968072266 79.903660075068 114.54595327089572 H 0.0 **** 0.06
9379 H 76.89938488164454 78.43197503890508 113.93914268654237 H 0.0 **** 0.06
9380 H 75.63715436293411 78.3104734406701 115.18729311290986 H 0.0 **** 0.06
9381 C 92.09495863190702 42.734539242822656 50.90134655358973 C 0.0 **** -0.24
9382 H 92.09741347643569 43.314095708513214 51.82458695573842 H 0.0 **** 0.06
9383 H 91.2191256567753 42.99933331887186 50.3082847543947 H 0.0 **** 0.06
9384 H 92.06523925124952 41.67140376658957 51.13966202133899 H 0.0 **** 0.06
9385 H 92.99805678891164 42.95419824401663 50.33236661886507 H 0.0 **** 0.06
9386 C 5.55332690960725 90.01606893300027 72.46391474927333 C 0.0 **** -0.24
9387 H 4.926806524340691 90.75630945523523 71.96495201850274 H 0.0 **** 0.06
9388 H 5.670975488710297 90.28827538688131 73.5138519558239 H 0.0 **** 0.06
9389 H 6.531628972600174 89.98511702899259 71.98375161553037 H 0.0 **** 0.06
9390 H 5.082718029409222 89.0353476469503 72.39321393241318 H 0.0 **** 0.06
9391 C 46.815630854275895 48.77334142389583 59.55151046044233 C 0.0 **** -0.24
9392 H 46.69598855860093 49.792780664298846 59.183638260187024 H 0.0 **** 0.06
9393 H 45.98909479410807 48.52897027694473 60.21952954419132 H 0.0 **** 0.06
9394 H 47.75793750706646 48.690625809631 60.09396590265807 H 0.0 **** 0.06
9395 H 46.81911654168647 48.08190072636398 58.709048502107095 H 0.0 **** 0.06
9396 C 28.61798024075282 83.82577046875996 74.73746084038416 C 0.0 **** -0.24
9397 H 29.587879366992667 83.44872010129964 74.4129145954848 H 0.0 **** 0.06
9398 H 28.628716574964727 84.91598172418016 74.72046811167311 H 0.0 **** 0.06
9399 H 28.41470536566893 83.4805309718076 75.7516647779236 H 0.0 **** 0.06
9400 H 27.842243202030993 83.45820998792617 74.06590676240003 H 0.0 **** 0.06
9401 C 82.58520201510942 9.072369272224506 34.14973708147787 C 0.0 **** -0.24
9402 H 83.61313653469625 9.432940738196322 34.11215525272481 H 0.0 **** 0.06
9403 H 81.98967969984028 9.594018178461099 33.40049937163442 H 0.0 **** 0.06
9404 H 82.17097460127295 9.262553445206066 35.14002300089128 H 0.0 **** 0.06
9405 H 82.56758074681602 8.001046932397685 33.948144615975885 H 0.0 **** 0.06
9406 C 73.33262481907826 49.192634517788974 20.17185901087842 C 0.0 **** -0.24
9407 H 72.72617195214846 49.666576928482925 20.943051601090033 H 0.0 **** 0.06
9408 H 73.16664438380684 49.696245438815424 19.21842091130091 H 0.0 **** 0.06
9409 H 73.05076099622627 48.1431984390581 20.08212999303086 H 0.0 **** 0.06
9410 H 74.38614063411853 49.26411673017202 20.442724826948506 H 0.0 **** 0.06
9411 C 53.071864057105984 115.03180154014964 6.126623389511906 C 0.0 **** -0.24
9412 H 52.52452157784262 115.49226210020119 6.948073777363504 H 0.0 **** 0.06
9413 H 52.47812692819923 115.09483012042928 5.214307537102712 H 0.0 **** 0.06
9414 H 53.26630864658415 113.98500166814603 6.3613975761213055 H 0.0 **** 0.06
9415 H 54.01759195724378 115.55399100200151 5.981328984463744 H 0.0 **** 0.06
9416 C 54.580379057109184 91.12132071712169 62.179130730764186 C 0.0 **** -0.24
9417 H 54.8193306743627 91.52344983966088 63.16433270140227 H 0.0 **** 0.06
9418 H 54.99629697732041 91.77420359657569 61.41099998030805 H 0.0 **** 0.06
9419 H 53.498800220032024 91.0667761195364 62.062607937184325 H 0.0 **** 0.06
9420 H 55.00819912802416 90.1238539961128 62.080522119185034 H 0.0 **** 0.06
9421 C 100.57027691405224 63.325833234216915 3.5664690504480063 C 0.0 **** -0.24
9422 H 101.17213396916537 63.31888343198483 4.475079707127918 H 0.0 **** 0.06
9423 H 99.73333195753841 62.63536181756231 3.680631388323036 H 0.0 **** 0.06
9424 H 101.18442484371155 63.01613503656735 2.7212928192267896 H 0.0 **** 0.06
9425 H 100.18970309378079 64.33240219634587 3.3904233248309197 H 0.0 **** 0.06
9426 C 20.39461779631435 79.35868142764798 97.27826649201415 C 0.0 **** -0.24
9427 H 19.774093573682052 79.30231798274986 96.38353779397562 H 0.0 **** 0.06
9428 H 20.04668775383061 80.17638295941612 97.90945223623135 H 0.0 **** 0.06
9429 H 21.430514887108103 79.53773947409815 96.98963695911277 H 0.0 **** 0.06
9430 H 20.32615873811187 78.42048857938681 97.82710524613515 H 0.0 **** 0.06
9431 C 9.59572523257788 107.56874167102177 82.84997371306406 C 0.0 **** -0.24
9432 H 10.361422683567564 108.26350562536712 83.19357661717945 H 0.0 **** 0.06
9433 H 10.040883185980658 106.58706097752918 82.68712721312585 H 0.0 **** 0.06
9434 H 9.167169997584903 107.93312418109952 81.91570425580687 H 0.0 **** 0.06
9435 H 8.81101442169884 107.49150892345276 83.60311954830382 H 0.0 **** 0.06
9436 C 43.46732579081248 65.76363846687474 72.37533378309934 C 0.0 **** -0.24
9437 H 42.60992293267327 65.36991870220442 71.82834410223478 H 0.0 **** 0.06
9438 H 43.534832214571736 66.84048355956372 72.21738398099933 H 0.0 **** 0.06
9439 H 44.377763841696094 65.28548617207628 72.01382652316858 H 0.0 **** 0.06
9440 H 43.34503217858759 65.55812139682644 73.43851934047547 H 0.0 **** 0.06
9441 C 10.64980294504565 37.19182838024709 62.84343002383743 C 0.0 **** -0.24
9442 H 10.647930636223961 37.69887976005987 61.878072059649426 H 0.0 **** 0.06
9443 H 10.350866932234723 36.15172680728866 62.706921308684684 H 0.0 **** 0.06
9444 H 9.9493542287412 37.686542859893535 63.51460034869231 H 0.0 **** 0.06
9445 H 11.651218562067044 37.22877448794786 63.271290110173226 H 0.0 **** 0.06
9446 C 46.2740752085366 21.906050803008725 108.67766702509275 C 0.0 **** -0.24
9447 H 46.225871982089245 20.963432159951026 108.13285047547106 H 0.0 **** 0.06
9448 H 47.190041618945145 22.433567707005807 108.40770939637846 H 0.0 **** 0.06
9449 H 46.271314524803756 21.70647591223934 109.7490305350309 H 0.0 **** 0.06
9450 H 45.4116903025523 22.52017560119782 108.41866016967006 H 0.0 **** 0.06
9451 C 114.30676986748607 22.407196709533654 85.699902091681 C 0.0 **** -0.24
9452 H 114.84155160826678 22.242582762583556 86.63475781967759 H 0.0 **** 0.06
9453 H 113.2363817308779 22.291081963856545 85.86949026827494 H 0.0 **** 0.06
9454 H 114.63949688098774 21.68046255300804 84.95826956952976 H 0.0 **** 0.06
9455 H 114.510499265762 23.415328659151058 85.33800169287349 H 0.0 **** 0.06
9456 C 111.33111581981512 13.396716489038589 4.656827128450004 C 0.0 **** -0.24
9457 H 110.91608805395447 14.3771602693406 4.890610158937989 H 0.0 **** 0.06
9458 H 110.53938118763989 12.747289161568393 4.281605799205636 H 0.0 **** 0.06
9459 H 111.76308684284126 12.961134446499958 5.557628912953533 H 0.0 **** 0.06
9460 H 112.10568898736162 13.502474276690531 3.8967348332031406 H 0.0 **** 0.06
9461 C 107.40909477779614 96.49218443258121 60.41654934674152 C 0.0 **** -0.24
9462 H 106.98456601377357 95.80265390386307 61.14653534553193 H 0.0 **** 0.06
9463 H 107.2444867995259 97.51759561048334 60.74772557136883 H 0.0 **** 0.06
9464 H 106.92659540220417 96.33944545102833 59.4506177910683 H 0.0 **** 0.06
9465 H 108.4793174352593 96.30706481308789 60.32161897425087 H 0.0 **** 0.06
9466 C 4.7224521746817345 9.06152194587122 110.08240596108664 C 0.0 **** -0.24
9467 H 4.082433450449628 9.096521299789426 109.20091596172813 H 0.0 **** 0.06
9468 H 5.258784486182378 10.005136578467763 110.17881959344129 H 0.0 **** 0.06
9469 H 5.437595142853581 8.245533618328974 109.97927435996706 H 0.0 **** 0.06
9470 H 4.109578129329009 8.897783290715441 110.96929020485999 H 0.0 **** 0.06
9471 C 37.437969830479574 110.96931307552899 13.806096033360944 C 0.0 **** -0.24
9472 H 37.5556087568915 111.76700396071053 13.071498194807816 H 0.0 **** 0.06
9473 H 38.27990901198547 110.98534449542686 14.497880637543233 H 0.0 **** 0.06
9474 H 37.40667372163006 110.00735410580802 13.293974878481748 H 0.0 **** 0.06
9475 H 36.50991761335399 111.11818632398021 14.357350374053965 H 0.0 **** 0.06
9476 C 113.8818842007373 76.50015275577482 19.843405155772103 C 0.0 **** -0.24
9477 H 113.01472005313452 76.02838052125993 19.382482395575437 H 0.0 **** 0.06
9478 H 113.68429676931102 76.66610543604128 20.90213856630777 H 0.0 **** 0.06
9479 H 114.07823655202976 77.45462744355689 19.35607434430625 H 0.0 **** 0.06
9480 H 114.75098973647192 75.85028000744214 19.733061907299856 H 0.0 **** 0.06
9481 C 81.36096385717497 96.75152217412644 27.65846492156119 C 0.0 **** -0.24
9482 H 80.64683379625075 97.03837095047585 26.88653708059674 H 0.0 **** 0.06
9483 H 81.15138666562729 95.73196875244595 27.985201654622095 H 0.0 **** 0.06
9484 H 81.27189582690477 97.4307990881246 28.505792053996082 H 0.0 **** 0.06
9485 H 82.37210965516971 96.80288720711661 27.254883017794 H 0.0 **** 0.06
9486 C 21.752337606582913 92.90542399940304 109.2348269470229 C 0.0 **** -0.24
9487 H 22.00166244932263 93.60967590443158 110.02971501334144 H 0.0 **** 0.06
9488 H 21.671493288338933 93.44129443021895 108.28813547937276 H 0.0 **** 0.06
9489 H 20.80107900972553 92.42476780586175 109.46270683958039 H 0.0 **** 0.06
9490 H 22.533337272110604 92.14992210502956 109.16051773009721 H 0.0 **** 0.06
9491 C 90.5649434315568 111.66152329565817 14.135779651310827 C 0.0 **** -0.24
9492 H 91.01789580428981 112.6299396292105 13.921337218340796 H 0.0 **** 0.06
9493 H 90.33805125201073 111.59623342384835 15.200388398369341 H 0.0 **** 0.06
9494 H 91.25870958243907 110.86733816014645 13.861713968322533 H 0.0 **** 0.06
9495 H 89.64499136422326 111.55612496521252 13.560336373795053 H 0.0 **** 0.06
9496 C 68.6710050208199 103.21242798079298 34.25425834409285 C 0.0 **** -0.24
9497 H 68.26364546546881 102.20484525976727 34.178927505328545 H 0.0 **** 0.06
9498 H 68.6117358041667 103.70185344495252 33.282169652839855 H 0.0 **** 0.06
9499 H 69.71239177558783 103.16051640594938 34.572439719419236 H 0.0 **** 0.06
9500 H 68.09668559286598 103.7822392522695 34.984357538427076 H 0.0 **** 0.06
9501 C 47.54476835154088 42.65488237211309 12.153123658642087 C 0.0 **** -0.24
9502 H 46.70682844018677 43.19419811864185 11.710635439219427 H 0.0 **** 0.06
9503 H 48.46481382640914 43.21713331029707 11.990754294707116 H 0.0 **** 0.06
9504 H 47.631706545795055 41.673164557300765 11.688127524091197 H 0.0 **** 0.06
9505 H 47.37555727206015 42.53723421542571 13.223336749768112 H 0.0 **** 0.06
9506 C 114.68686303266385 108.38137652707063 105.65547971921121 C 0.0 **** -0.24
9507 H 114.4177944174687 107.63583973769201 104.90683389925569 H 0.0 **** 0.06
9508 H 115.68156387465521 108.77184567923284 105.43759511138548 H 0.0 **** 0.06
9509 H 114.68461974676245 107.92174717232183 106.64324148796356 H 0.0 **** 0.06
9510 H 113.9634506097561 109.19659299960024 105.63185465108144 H 0.0 **** 0.06
9511 C 32.97883343459807 65.17571386313696 113.05820655984894 C 0.0 **** -0.24
9512 H 33.06190718241348 64.90474573762538 112.00573443339503 H 0.0 **** 0.06
9513 H 32.95369271109848 64.27055939012871 113.66527154708682 H 0.0 **** 0.06
9514 H 32.063395288586776 65.74509187838405 113.2154775531061 H 0.0 **** 0.06
9515 H 33.838046368941775 65.78194508580725 113.34543713179197 H 0.0 **** 0.06
9516 C 62.412551858367095 73.37435832924689 14.581281540741031 C 0.0 **** -0.24
9517 H 63.034083995106045 72.85047938204927 13.853748505844038 H 0.0 **** 0.06
9518 H 61.40871050670515 72.94854859437393 14.573457240899614 H 0.0 **** 0.06
9519 H 62.362161604292396 74.43133327111418 14.322242399485134 H 0.0 **** 0.06
9520 H 62.84685031169195 73.26368935047662 15.575713478490115 H 0.0 **** 0.06
9521 C 113.25625151303777 6.522809778761911 68.54408076817829 C 0.0 **** -0.24
9522 H 113.12657529610753 5.782522194347081 67.75404597395008 H 0.0 **** 0.06
9523 H 114.31650811452452 6.750502926936747 68.65623401064016 H 0.0 **** 0.06
9524 H 112.86821730946822 6.124229810851233 69.48074716823847 H 0.0 **** 0.06
9525 H 112.71483316391178 7.431346256830551 68.28233444931504 H 0.0 **** 0.06
9526 C 12.911908332671004 104.39430100593222 38.390200577119685 C 0.0 **** -0.24
9527 H 13.574188426105124 104.22366989693887 37.54064261272919 H 0.0 **** 0.06
9528 H 12.237551879036019 105.22062603278437 38.16362846238678 H 0.0 **** 0.06
9529 H 13.506660933478457 104.63964914400819 39.270227965656204 H 0.0 **** 0.06
9530 H 12.330489116193604 103.49231422401817 38.58290795045619 H 0.0 **** 0.06
9531 C 107.16885490242086 27.83783413539902 58.60014200342465 C 0.0 **** -0.24
9532 H 106.62307931331412 27.78220519257539 57.658151030469924 H 0.0 **** 0.06
9533 H 107.7612891640046 26.932084447495555 58.73021779985703 H 0.0 **** 0.06
9534 H 106.46176901690541 27.933273987195776 59.42452199605452 H 0.0 **** 0.06
9535 H 107.82925892627142 28.705668042020108 58.586125319259224 H 0.0 **** 0.06
9536 C 103.9267876094172 87.16911536955763 97.78131358531667 C 0.0 **** -0.24
9537 H 104.60706750987977 86.31983310902024 97.83253245355796 H 0.0 **** 0.06
9538 H 104.07694838079092 87.80818256043847 98.65242926006515 H 0.0 **** 0.06
9539 H 102.89744174058724 86.8108665096093 97.7662672608506 H 0.0 **** 0.06
9540 H 104.12706892020323 87.7402450513016 96.8740011155622 H 0.0 **** 0.06
9541 C 7.2578123194828805 18.223523083550816 42.938942837467465 C 0.0 **** -0.24
9542 H 8.241142988733401 17.87929847231794 42.61552534322806 H 0.0 **** 0.06
9543 H 6.599610616757687 17.36613109974118 43.07547853112493 H 0.0 **** 0.06
9544 H 6.839068331894666 18.88666932711186 42.18212048411834 H 0.0 **** 0.06
9545 H 7.354263779561535 18.762679414468465 43.88195088962266 H 0.0 **** 0.06
9546 C 109.55799643330401 57.65875131359452 105.73378351275554 C 0.0 **** -0.24
9547 H 109.12400351225244 56.8318375274725 105.17213125400346 H 0.0 **** 0.06
9548 H 109.61990241045628 57.388884158654434 106.78772321011942 H 0.0 **** 0.06
9549 H 108.93161114494977 58.543510194359 105.62024169444932 H 0.0 **** 0.06
9550 H 110.55751839435788 57.87102985356829 105.35283956836237 H 0.0 **** 0.06
9551 C 48.11905092704052 92.74394515011598 45.36648160049813 C 0.0 **** -0.24
9552 H 47.892748262163366 92.35684024266686 46.36047279980444 H 0.0 **** 0.06
9553 H 47.74611858544904 92.0499790557735 44.61306067269103 H 0.0 **** 0.06
9554 H 49.197109578258846 92.85555957546079 45.2560585587239 H 0.0 **** 0.06
9555 H 47.63807169854448 93.71361639419715 45.23688904259417 H 0.0 **** 0.06
9556 C 5.459738267287719 95.6534544742151 83.49161446452246 C 0.0 **** -0.24
9557 H 6.381990337666764 96.20720808716476 83.31672709940091 H 0.0 **** 0.06
9558 H 4.945094336998082 96.06999055310274 84.35880360392323 H 0.0 **** 0.06
9559 H 5.695784658547751 94.60581013336935 83.67712178760124 H 0.0 **** 0.06
9560 H 4.816739840058844 95.73246104103356 82.61549090449822 H 0.0 **** 0.06
9561 C 77.73534875900579 95.86004976671268 48.30607886389326 C 0.0 **** -0.24
9562 H 78.62939844466463 96.29332995736846 48.755853319843354 H 0.0 **** 0.06
9563 H 77.98463840438505 94.89923735189353 47.85526653586419 H 0.0 **** 0.06
9564 H 77.35214325453428 96.53399969674652 47.538981304011095 H 0.0 **** 0.06
9565 H 76.97604431972985 95.71565683770291 49.07531553904266 H 0.0 **** 0.06
9566 C 79.13085716948068 98.05806571664172 0.3941127071957169 C 0.0 **** -0.24
9567 H 78.5172803637782 98.95189050011066 0.27535920769923905 H 0.0 **** 0.06
9568 H 80.00675309357656 98.13142520573601 -0.25115182565230043 H 0.0 **** 0.06
9569 H 78.54873678325148 97.17904250584837 0.11794683580328069 H 0.0 **** 0.06
9570 H 79.44976709968536 97.97250233489666 1.4330890980041318 H 0.0 **** 0.06
9571 C 63.70930163807817 11.446177340864494 39.96524379050443 C 0.0 **** -0.24
9572 H 64.2594531946157 10.674950489658386 40.503675699941326 H 0.0 **** 0.06
9573 H 64.41060619068274 12.085458735906514 39.42882251451133 H 0.0 **** 0.06
9574 H 63.13874147115584 12.046275069564274 40.673555391375444 H 0.0 **** 0.06
9575 H 63.02771108301013 10.977337952549647 39.2547083854609 H 0.0 **** 0.06
9576 C 7.085350958602319 93.03704832866428 90.23969820371029 C 0.0 **** -0.24
9577 H 7.082622413202316 92.46069402769676 91.16562471817228 H 0.0 **** 0.06
9578 H 8.113933127269533 93.21008053300119 89.92363631668267 H 0.0 **** 0.06
9579 H 6.589555038593616 93.99314076863178 90.4051072713927 H 0.0 **** 0.06
9580 H 6.555556838788235 92.48170891170001 89.4655781287055 H 0.0 **** 0.06
9581 C 5.2698667101654735 96.13284037335652 28.734980639884895 C 0.0 **** -0.24
9582 H 5.546648469455221 96.2342981153077 29.78441083971279 H 0.0 **** 0.06
9583 H 6.167884563196097 96.17503048836 28.117634259069575 H 0.0 **** 0.06
9584 H 4.598581178098058 96.94492862276138 28.456759629644182 H 0.0 **** 0.06
9585 H 4.767968507614455 95.17848696636969 28.582333323963553 H 0.0 **** 0.06
9586 C 65.64825144083972 13.60281071899578 114.41755285220631 C 0.0 **** -0.24
9587 H 64.72323089194921 13.056076066836887 114.2319220042109 H 0.0 **** 0.06
9588 H 66.2553047949504 13.05357026829978 115.13804419430483 H 0.0 **** 0.06
9589 H 65.41362317542402 14.58901473765252 114.81646598763018 H 0.0 **** 0.06
9590 H 66.20012008448704 13.709693243651277 113.48342079105083 H 0.0 **** 0.06
9591 C 52.722653414455436 115.33537585225139 35.71877904287226 C 0.0 **** -0.24
9592 H 53.72478442509268 115.58174002734143 35.368673840623046 H 0.0 **** 0.06
9593 H 52.11565187352426 115.0053245146944 34.87511983601058 H 0.0 **** 0.06
9594 H 52.268663685698954 116.21637065695 36.170868582065 H 0.0 **** 0.06
9595 H 52.7822049197008 114.53642864208001 36.45783961282905 H 0.0 **** 0.06
9596 C 110.4975450579872 94.91014057600285 14.058701760333008 C 0.0 **** -0.24
9597 H 109.55440829191744 95.16009679531311 13.572845321065259 H 0.0 **** 0.06
9598 H 110.40892727321727 95.07567069995685 15.132238065930167 H 0.0 **** 0.06
9599 H 111.29082338029195 95.54183923605899 13.65645435383648 H 0.0 **** 0.06
9600 H 110.73685623776103 93.86348494089833 13.870436786161434 H 0.0 **** 0.06
9601 C 83.71033820347594 31.122580420038382 68.15275334526308 C 0.0 **** -0.24
9602 H 84.2166082937062 32.048597817379836 67.87876069127282 H 0.0 **** 0.06
9603 H 84.36039417074392 30.275322641949785 67.93491157241613 H 0.0 **** 0.06
9604 H 82.78731156932389 31.03019247923256 67.58020477278131 H 0.0 **** 0.06
9605 H 83.47655062404436 31.13852705014221 69.21775883174848 H 0.0 **** 0.06
9606 C 40.86569582083995 18.385888789881122 99.09964523345579 C 0.0 **** -0.24
9607 H 41.23433011226891 18.918728278159577 99.97628393014439 H 0.0 **** 0.06
9608 H 39.82047375557974 18.64473119606521 98.92965695968127 H 0.0 **** 0.06
9609 H 40.952669542029504 17.311426871958048 99.26380601704692 H 0.0 **** 0.06
9610 H 41.45665971071851 18.668436642185014 98.22848167810047 H 0.0 **** 0.06
9611 C 73.36632159135553 47.16888018838574 81.77272197780371 C 0.0 **** -0.24
9612 H 72.74176914893428 48.01359095674046 82.06212908952907 H 0.0 **** 0.06
9613 H 73.9224907405818 47.41957980411016 80.86931833258359 H 0.0 **** 0.06
9614 H 72.7367326227286 46.29921117828319 81.5825742962578 H 0.0 **** 0.06
9615 H 74.06476193110325 46.94138475153221 82.57851073157957 H 0.0 **** 0.06
9616 C 63.469632429265516 48.58006622576009 73.60066109918478 C 0.0 **** -0.24
9617 H 63.10088203767873 47.83138220380031 74.3009580868181 H 0.0 **** 0.06
9618 H 64.00827954571031 48.08675766068922 72.79179369456335 H 0.0 **** 0.06
9619 H 64.14007960480603 49.26401959868876 74.11963107749659 H 0.0 **** 0.06
9620 H 62.62789010236179 49.13806264764329 73.19005493229383 H 0.0 **** 0.06
9621 C 54.745027563917915 60.47970499534074 20.071130436992803 C 0.0 **** -0.24
9622 H 53.92554791189332 60.555246451768056 20.785984374455325 H 0.0 **** 0.06
9623 H 55.276479347214874 61.43085667983826 20.02645284231653 H 0.0 **** 0.06
9624 H 54.34638241986884 60.24048848484222 19.08481095852494 H 0.0 **** 0.06
9625 H 55.431420414817104 59.69436381038474 20.38667218571402 H 0.0 **** 0.06
9626 C 36.04202622484425 98.09057841902535 0.5739992937072884 C 0.0 **** -0.24
9627 H 35.171075307917214 98.23838511627059 1.212993244807933 H 0.0 **** 0.06
9628 H 35.71444240610607 97.78770754044609 -0.42094526520196496 H 0.0 **** 0.06
9629 H 36.67703184575036 97.31328780206627 1.0000799914102458 H 0.0 **** 0.06
9630 H 36.603850784485275 99.0217210782593 0.5051441751555785 H 0.0 **** 0.06
9631 C 18.399204149051535 90.01834219827745 33.18873665110061 C 0.0 **** -0.24
9632 H 17.42169779951873 89.54428539628381 33.27130165744132 H 0.0 **** 0.06
9633 H 18.991403347616345 89.78800896921774 34.074788742663266 H 0.0 **** 0.06
9634 H 18.273586537126462 91.09894287127902 33.10764370349066 H 0.0 **** 0.06
9635 H 18.911205721973385 89.64491357219087 32.30153090254421 H 0.0 **** 0.06
9636 C 91.59245964459866 90.22643591757179 16.404525218960885 C 0.0 **** -0.24
9637 H 90.93649832006446 89.94913155593457 15.57889962110852 H 0.0 **** 0.06
9638 H 92.60592861868716 89.88655837075139 16.19256905581034 H 0.0 **** 0.06
9639 H 91.23687946301739 89.76104386157404 17.323391629054413 H 0.0 **** 0.06
9640 H 91.58839657093756 91.31073110313694 16.521375841547183 H 0.0 **** 0.06
9641 C 70.7070236417228 61.548623738441506 91.49120852741933 C 0.0 **** -0.24
9642 H 71.73821994677184 61.56272454126298 91.8442438052652 H 0.0 **** 0.06
9643 H 70.57633223570207 60.727220323859456 90.78695166969828 H 0.0 **** 0.06
9644 H 70.47950181828304 62.493157848600504 90.99592502064664 H 0.0 **** 0.06
9645 H 70.03532969386839 61.41265005602395 92.33858325542535 H 0.0 **** 0.06
9646 C 79.70781293652715 110.73636857727513 11.316516138315247 C 0.0 **** -0.24
9647 H 78.89358832134339 110.64071111384534 12.034494168294383 H 0.0 **** 0.06
9648 H 80.16351332271282 109.76063878585458 11.151525169398127 H 0.0 **** 0.06
9649 H 80.45649934813342 111.42681783139474 11.705691000236158 H 0.0 **** 0.06
9650 H 79.31730831989486 111.11874448828485 10.37345126264616 H 0.0 **** 0.06
9651 C 106.0355336168011 49.85984136848562 24.83125595527747 C 0.0 **** -0.24
9652 H 105.52517018127458 50.46417844352162 25.580727354121933 H 0.0 **** 0.06
9653 H 106.34549461046714 50.495706577645116 24.001595658307238 H 0.0 **** 0.06
9654 H 105.35838151047557 49.08776171162594 24.46533300238073 H 0.0 **** 0.06
9655 H 106.91293992147735 49.39131365232474 25.278270016789406 H 0.0 **** 0.06
9656 C 102.52813767264664 21.551906906230045 115.45423974216571 C 0.0 **** -0.24
9657 H 103.19678933540092 21.193159510353894 114.67136884163156 H 0.0 **** 0.06
9658 H 102.8730922362179 22.52271356269526 115.809933897106 H 0.0 **** 0.06
9659 H 102.52503555065994 20.841366419744134 116.28102578942175 H 0.0 **** 0.06
9660 H 101.51885236285051 21.64747017089391 115.05460572765986 H 0.0 **** 0.06
9661 C 92.7687237947528 99.59494709186396 45.68507950070136 C 0.0 **** -0.24
9662 H 92.12278056056883 99.86295551363436 44.84810072939928 H 0.0 **** 0.06
9663 H 92.15437259990719 99.29915188575497 46.53631356971732 H 0.0 **** 0.06
9664 H 93.38182177843474 100.45338098661833 45.9597860239482 H 0.0 **** 0.06
9665 H 93.41258065886763 98.7658427321768 45.395433637747146 H 0.0 **** 0.06
9666 C 50.37667398830536 16.043396004423162 109.62208818352832 C 0.0 **** -0.24
9667 H 49.345570429867564 15.779933908690861 109.38542014972379 H 0.0 **** 0.06
9668 H 50.75592977099294 15.368740999666812 110.38976470553484 H 0.0 **** 0.06
9669 H 50.415195011361575 17.06952018272253 109.98717150657356 H 0.0 **** 0.06
9670 H 50.98886138558127 15.95367405002554 108.72512381750744 H 0.0 **** 0.06
9671 C 93.2721676591408 46.93912466454935 107.54500120765397 C 0.0 **** -0.24
9672 H 94.28065082478139 46.95170357254224 107.95655429393373 H 0.0 **** 0.06
9673 H 92.95320983735513 47.960434581474814 107.33478568350878 H 0.0 **** 0.06
9674 H 92.59161042340776 46.48465388515253 108.2646064336933 H 0.0 **** 0.06
9675 H 93.26479139042105 46.35890759340681 106.62076776583002 H 0.0 **** 0.06
9676 C 107.88132991338684 81.5494139421579 13.024803942998545 C 0.0 **** -0.24
9677 H 107.20861800599761 82.08611013737746 12.35633300121225 H 0.0 **** 0.06
9678 H 108.56884653050417 82.25467825393558 13.492056254768215 H 0.0 **** 0.06
9679 H 108.4476656763354 80.8125077490593 12.454653382040277 H 0.0 **** 0.06
9680 H 107.2998831432822 81.04274371744836 13.795629824923566 H 0.0 **** 0.06
9681 C 70.7869224696127 57.14877248917895 89.16683714755139 C 0.0 **** -0.24
9682 H 69.78382279033869 56.94744538517705 88.78952554979914 H 0.0 **** 0.06
9683 H 71.51622441513136 56.6045549591791 88.56597479845821 H 0.0 **** 0.06
9684 H 70.8568124724151 56.8236192616871 90.20476455778713 H 0.0 **** 0.06
9685 H 70.99014809438503 58.217678277810165 89.105933253666 H 0.0 **** 0.06
9686 C 104.4766682419849 31.571677599080715 3.956898663433245 C 0.0 **** -0.24
9687 H 103.89511692407734 30.96773148160463 4.65308590768713 H 0.0 **** 0.06
9688 H 104.51554361212447 32.60093568877397 4.314956061898483 H 0.0 **** 0.06
9689 H 104.00727753561205 31.545375447812347 2.97358940121439 H 0.0 **** 0.06
9690 H 105.48899057260326 31.172896941315997 3.8873352258972975 H 0.0 **** 0.06
9691 C 4.088060662227065 19.172602678457594 47.988598820881236 C 0.0 **** -0.24
9692 H 4.109272575404617 18.745902429878157 46.985203795869495 H 0.0 **** 0.06
9693 H 3.115694727347062 19.632012168757413 48.16798945307386 H 0.0 **** 0.06
9694 H 4.869128421042234 19.928407965037465 48.07768947157956 H 0.0 **** 0.06
9695 H 4.259280084125578 18.3846834235694 48.721975739112224 H 0.0 **** 0.06
9696 C 100.27650977975793 6.024073802936414 26.320457341424273 C 0.0 **** -0.24
9697 H 100.1751113177695 6.828248586244939 27.04891722172242 H 0.0 **** 0.06
9698 H 101.05036753821483 6.283955507745333 25.59786046333869 H 0.0 **** 0.06
9699 H 99.32732572778366 5.882645332868378 25.802377956693945 H 0.0 **** 0.06
9700 H 100.55135345927863 5.102882993600019 26.833303267766667 H 0.0 **** 0.06
9701 C 91.4909790607594 1.708422340896023 58.82000906578821 C 0.0 **** -0.24
9702 H 92.28577682840739 2.3615881800891003 58.46112552801134 H 0.0 **** 0.06
9703 H 90.67667904215114 1.6949366518408695 58.095925410836344 H 0.0 **** 0.06
9704 H 91.12126848583642 2.0778386299283653 59.77703116790519 H 0.0 **** 0.06
9705 H 91.88117824261815 0.6984979917802274 58.94748448135243 H 0.0 **** 0.06
9706 C 29.960581778741613 29.112936259247675 108.89601041870709 C 0.0 **** -0.24
9707 H 29.36363544652997 28.97503348983497 107.99365043355043 H 0.0 **** 0.06
9708 H 30.745085274918495 29.845096440812085 108.70230616053571 H 0.0 **** 0.06
9709 H 30.411983109701566 28.162370133036546 109.1810006960307 H 0.0 **** 0.06
9710 H 29.321793191096276 29.468724696792464 109.7038131358143 H 0.0 **** 0.06
9711 C 14.379576722094043 79.30652503502493 3.682099730140095 C 0.0 **** -0.24
9712 H 13.537565223180252 79.36056147593092 4.373010953660952 H 0.0 **** 0.06
9713 H 14.057842041710444 79.62596712881805 2.69053473704642 H 0.0 **** 0.06
9714 H 14.742396344662723 78.27989259357108 3.632690186731054 H 0.0 **** 0.06
9715 H 15.179978682150988 79.95746727984239 4.033076109921126 H 0.0 **** 0.06
9716 C 85.40976941116625 10.250247904498167 74.25513643743986 C 0.0 **** -0.24
9717 H 84.67612201054125 11.055561389122914 74.20461608087783 H 0.0 **** 0.06
9718 H 84.95047112175297 9.319213586109655 73.923151908797 H 0.0 **** 0.06
9719 H 85.75702189196893 10.139481600825661 75.28204980038169 H 0.0 **** 0.06
9720 H 86.25533177597123 10.490085521050418 73.6094020982332 H 0.0 **** 0.06
9721 C 27.699530707687074 42.66842954382537 68.4614330394694 C 0.0 **** -0.24
9722 H 26.659916859832208 42.34325151613223 68.50298855651971 H 0.0 **** 0.06
9723 H 27.889854492585982 43.38004348210018 69.2652962456902 H 0.0 **** 0.06
9724 H 27.893116838703236 43.14510441853241 67.50008030877643 H 0.0 **** 0.06
9725 H 28.354373070192764 41.80484163513435 68.57754056412693 H 0.0 **** 0.06
9726 C 51.82458944445588 36.02150191072238 110.47076850182087 C 0.0 **** -0.24
9727 H 51.54731460179039 36.213284250817 111.50832855725227 H 0.0 **** 0.06
9728 H 52.839905682310615 35.62673755952656 110.43362557060355 H 0.0 **** 0.06
9729 H 51.774430373798396 36.95068861158131 109.9042664062661 H 0.0 **** 0.06
9730 H 51.13573376264954 35.29481362082606 110.04029141523897 H 0.0 **** 0.06
9731 C 13.76152812411095 55.7077070545256 18.655451568806768 C 0.0 **** -0.24
9732 H 14.067191797276415 56.691431221037135 19.01010205879723 H 0.0 **** 0.06
9733 H 12.768513129485573 55.77360876127585 18.21035409168809 H 0.0 **** 0.06
9734 H 13.73881654943138 55.0098199455509 19.493307406506744 H 0.0 **** 0.06
9735 H 14.472723675151727 55.35408418244302 17.90845200419696 H 0.0 **** 0.06
9736 C 58.6992824107941 91.44207365693299 1.9927621493783647 C 0.0 **** -0.24
9737 H 59.106106576956165 92.31183068572597 2.5080420037928413 H 0.0 **** 0.06
9738 H 57.81501802023229 91.08634403842231 2.5218259411403867 H 0.0 **** 0.06
9739 H 59.449530394662034 90.65128296527445 1.9657131714008163 H 0.0 **** 0.06
9740 H 58.42654261181822 91.71871686659273 0.9740599734962885 H 0.0 **** 0.06
9741 C 0.8313232472726213 29.21010677417928 109.64729357052246 C 0.0 **** -0.24
9742 H 0.6948461133758883 30.044510343122965 110.33529737573622 H 0.0 **** 0.06
9743 H 1.8724725498323664 29.16987188862703 109.32639660051515 H 0.0 **** 0.06
9744 H 0.1878785374690608 29.346898961686634 108.77872733684023 H 0.0 **** 0.06
9745 H 0.5693516910692438 28.279228617432125 110.14995279866775 H 0.0 **** 0.06
9746 C 88.0125197789003 42.16256616210376 91.6538329965876 C 0.0 **** -0.24
9747 H 88.97751926069199 42.37533353405445 92.11444848855135 H 0.0 **** 0.06
9748 H 87.30444728554568 41.85223694871405 92.42250893748346 H 0.0 **** 0.06
9749 H 88.12847882139721 41.362227124846015 90.92281145388029 H 0.0 **** 0.06
9750 H 87.6417409174797 43.05893998242999 91.15735990859298 H 0.0 **** 0.06
9751 C 47.39940213278686 87.13933500099252 66.33351753496015 C 0.0 **** -0.24
9752 H 46.988535776323204 86.7009991703592 67.24334835834219 H 0.0 **** 0.06
9753 H 48.005713976749576 88.00828425823245 66.5905578577354 H 0.0 **** 0.06
9754 H 46.58447145692236 87.44492963403317 65.67823637455831 H 0.0 **** 0.06
9755 H 48.019252178624185 86.40210383182266 65.8232767328526 H 0.0 **** 0.06
9756 C 25.514970652231085 114.51376364782838 76.03266388576817 C 0.0 **** -0.24
9757 H 24.5569800527972 114.44997790388898 75.51626291160183 H 0.0 **** 0.06
9758 H 26.018884631763854 115.43820503324854 75.75093996386096 H 0.0 **** 0.06
9759 H 26.134656370739407 113.6615727471048 75.7537430558182 H 0.0 **** 0.06
9760 H 25.348691075860927 114.50346136647637 77.11012690255178 H 0.0 **** 0.06
9761 C 5.1492961667128725 23.866410643808127 13.217757507160172 C 0.0 **** -0.24
9762 H 5.02684953011142 24.77085055376719 13.812443762565294 H 0.0 **** 0.06
9763 H 6.146627530351552 23.85240244991362 12.778219712091925 H 0.0 **** 0.06
9764 H 4.4017164331798995 23.84900680290525 12.424755490535574 H 0.0 **** 0.06
9765 H 5.021723297280914 22.99150482106801 13.857160868775622 H 0.0 **** 0.06
9766 C 67.05583832128023 25.73009425925494 89.33731566019004 C 0.0 **** -0.24
9767 H 66.99585358095855 24.6851703769805 89.64110414804681 H 0.0 **** 0.06
9768 H 67.42237756089018 26.330225785051994 90.17061916867239 H 0.0 **** 0.06
9769 H 66.06635855464411 26.081274718972757 89.04344210299165 H 0.0 **** 0.06
9770 H 67.73957938680002 25.824285638203087 88.49309782750349 H 0.0 **** 0.06
9771 C 65.59591581386336 53.925781584779656 42.4512788648443 C 0.0 **** -0.24
9772 H 65.16074651873812 53.40405697041626 41.598650170386776 H 0.0 **** 0.06
9773 H 66.09119658036047 54.83464841571379 42.1071470662123 H 0.0 **** 0.06
9774 H 66.32390522212778 53.2780391896402 42.93957463348945 H 0.0 **** 0.06
9775 H 64.80899018840904 54.18631089955619 43.15812680749202 H 0.0 **** 0.06
9776 C 20.70344240672776 63.25232272111808 34.98764446174775 C 0.0 **** -0.24
9777 H 21.20339352264861 62.42998197962142 35.4997403119018 H 0.0 **** 0.06
9778 H 19.623782098703828 63.13492546698242 35.08044023582289 H 0.0 **** 0.06
9779 H 20.981262249402874 63.246262888269 33.93359940819971 H 0.0 **** 0.06
9780 H 21.006077178897755 64.19792727905455 35.43798410569977 H 0.0 **** 0.06
9781 C 12.127918598232903 42.15953503687257 105.77814668004689 C 0.0 **** -0.24
9782 H 11.618402330552232 41.432367412936 105.14542793646075 H 0.0 **** 0.06
9783 H 12.826918966217036 41.64208339807243 106.43558022660949 H 0.0 **** 0.06
9784 H 11.392728696883236 42.69567831534397 106.3781931305383 H 0.0 **** 0.06
9785 H 12.672000178275763 42.86720662339485 105.15207579506111 H 0.0 **** 0.06
9786 C 11.656264142800296 56.098359109141725 113.49200830244021 C 0.0 **** -0.24
9787 H 10.93601977037659 56.48372713947123 112.77015506777116 H 0.0 **** 0.06
9788 H 12.101203162943307 55.181130604349555 113.105648731482 H 0.0 **** 0.06
9789 H 11.15075253130226 55.88934778951425 114.43426239468852 H 0.0 **** 0.06
9790 H 12.437584908045267 56.841341868067445 113.6554589015818 H 0.0 **** 0.06
9791 C 40.598430661430996 9.603440745281517 42.59264120236088 C 0.0 **** -0.24
9792 H 41.487481923306916 10.23537016412918 42.607396654268626 H 0.0 **** 0.06
9793 H 40.894905140642436 8.558821164769498 42.68110760267686 H 0.0 **** 0.06
9794 H 40.06422634496761 9.75229084861752 41.654670571361294 H 0.0 **** 0.06
9795 H 39.949750478995554 9.869659183905824 43.426783445007004 H 0.0 **** 0.06
9796 C 109.54752414578672 8.69878385371294 93.08114370602584 C 0.0 **** -0.24
9797 H 110.5525490358329 8.284607923815003 92.99755033214126 H 0.0 **** 0.06
9798 H 109.54124363305897 9.718845354581688 92.69416984455847 H 0.0 **** 0.06
9799 H 109.24305797581394 8.706573103903253 94.12810897679842 H 0.0 **** 0.06
9800 H 108.8534640211895 8.08751650276875 92.50514173656006 H 0.0 **** 0.06
9801 C 21.889145389616658 83.54875604579625 114.95723658085599 C 0.0 **** -0.24
9802 H 21.96434516479914 84.49340386912247 115.49590349281368 H 0.0 **** 0.06
9803 H 21.63969494034265 82.75046533119253 115.65586805218263 H 0.0 **** 0.06
9804 H 22.842422506705475 83.32782499188005 114.47658203907396 H 0.0 **** 0.06
9805 H 21.10898015498796 83.62557511248532 114.19782445844999 H 0.0 **** 0.06
9806 C 27.102112906401004 19.345065390424907 40.28502703246807 C 0.0 **** -0.24
9807 H 26.719172785550626 19.536514069190417 41.287346748008936 H 0.0 **** 0.06
9808 H 26.45366097713918 19.823959178527275 39.55101039906388 H 0.0 **** 0.06
9809 H 27.12585549218717 18.27110990966696 40.10330635531081 H 0.0 **** 0.06
9810 H 28.110449677632516 19.750794320224742 40.1982192535997 H 0.0 **** 0.06
9811 C 69.77609545478876 4.150476636213469 25.084051478456956 C 0.0 **** -0.24
9812 H 69.57704805990521 3.2946117678531976 24.439432993983075 H 0.0 **** 0.06
9813 H 70.69255561979591 3.9747404361754946 25.64878699124506 H 0.0 **** 0.06
9814 H 68.94409858441915 4.286633266887932 25.77449343665711 H 0.0 **** 0.06
9815 H 69.89194392812608 5.046532548373719 24.473658544416878 H 0.0 **** 0.06
9816 C 113.94903628558565 25.625210767381674 48.29470324502827 C 0.0 **** -0.24
9817 H 114.03681239244007 25.23555422870311 47.28104421422364 H 0.0 **** 0.06
9818 H 113.55161519333735 24.849752173783465 48.94864890959012 H 0.0 **** 0.06
9819 H 113.2769258918343 26.483685206308998 48.29731962077207 H 0.0 **** 0.06
9820 H 114.93250256522575 25.93324102230389 48.6514231116182 H 0.0 **** 0.06
9821 C 27.609031670961862 57.93201678220899 55.46482886326373 C 0.0 **** -0.24
9822 H 26.923115845057872 57.5454336893622 56.218208921704445 H 0.0 **** 0.06
9823 H 27.31791229037254 58.94689309879152 55.19480461254369 H 0.0 **** 0.06
9824 H 27.571930852001344 57.295591172342995 54.5803750437326 H 0.0 **** 0.06
9825 H 28.623040468898992 57.93842326674701 55.86599931428742 H 0.0 **** 0.06
9826 C 101.13510542187308 37.24912531569123 98.13948081472157 C 0.0 **** -0.24
9827 H 100.81053658744385 37.9294218240766 97.35147805898482 H 0.0 **** 0.06
9828 H 101.72574265186068 37.79855104664716 98.87283925877831 H 0.0 **** 0.06
9829 H 101.74234358994521 36.45466574945185 97.70582732303983 H 0.0 **** 0.06
9830 H 100.26291687130703 36.81463594765066 98.62670520453034 H 0.0 **** 0.06
9831 C 85.6353232238859 57.28985583074922 43.83084084084686 C 0.0 **** -0.24
9832 H 84.94467293455747 57.73951404566691 44.54397631313596 H 0.0 **** 0.06
9833 H 85.12109264390969 57.114685256534656 42.88655716523972 H 0.0 **** 0.06
9834 H 86.00020472279729 56.34187696291848 44.22778439338725 H 0.0 **** 0.06
9835 H 86.47719471388021 57.96273202664857 43.667713361611845 H 0.0 **** 0.06
9836 C 37.642635535084 96.81603511435253 44.06893285566122 C 0.0 **** -0.24
9837 H 37.599332346802484 97.78036202967746 44.57410305036797 H 0.0 **** 0.06
9838 H 37.8651160867995 96.96994109690269 43.01199197168876 H 0.0 **** 0.06
9839 H 36.682834752283384 96.30978033902966 44.16722863941686 H 0.0 **** 0.06
9840 H 38.424433424740556 96.20433088914467 44.518865671978176 H 0.0 **** 0.06
9841 C 79.45985005480611 97.28035604379102 35.39990475694995 C 0.0 **** -0.24
9842 H 79.98491056215693 97.52153198080742 34.47601777986114 H 0.0 **** 0.06
9843 H 79.62650769854923 98.07293115352644 36.12952417161745 H 0.0 **** 0.06
9844 H 79.8348080675132 96.33699924677092 35.79503120914302 H 0.0 **** 0.06
9845 H 78.39252075290398 97.19109550142662 35.19753313928632 H 0.0 **** 0.06
9846 C 45.275326726501795 72.82603906268048 112.40395414505824 C 0.0 **** -0.24
9847 H 45.51688861628703 72.92266870748233 111.34576036179052 H 0.0 **** 0.06
9848 H 44.81468266688655 71.85465244439143 112.58470718766546 H 0.0 **** 0.06
9849 H 44.58220116118801 73.61712833820957 112.69099646504189 H 0.0 **** 0.06
9850 H 46.18857595295014 72.91186111770503 112.99382875024764 H 0.0 **** 0.06
9851 C 35.674175664604036 10.543293461247856 40.57417411820791 C 0.0 **** -0.24
9852 H 34.861657485148385 10.357531213217896 41.27726173854887 H 0.0 **** 0.06
9853 H 35.64734831184188 9.793124964693163 39.78367358759863 H 0.0 **** 0.06
9854 H 36.62837425852922 10.484053877877955 41.09823642377984 H 0.0 **** 0.06
9855 H 35.55848559329087 11.535244263431593 40.138915696641845 H 0.0 **** 0.06
9856 C 41.48670133634511 80.28110969982691 0.32422277390188725 C 0.0 **** -0.24
9857 H 42.04483253738658 79.78500530596318 -0.47070654926296474 H 0.0 **** 0.06
9858 H 40.66908798951562 80.85565340132547 -0.11010596665590544 H 0.0 **** 0.06
9859 H 42.15117029453933 80.9498370916807 0.8722385457761987 H 0.0 **** 0.06
9860 H 41.08308060532465 79.53194084381477 1.0058193708065772 H 0.0 **** 0.06
9861 C 4.430185098126714 13.964296038942393 61.905469336864684 C 0.0 **** -0.24
9862 H 5.518335599442366 13.964803724488206 61.83810605530097 H 0.0 **** 0.06
9863 H 4.107506593412765 14.763234564646723 62.572944699750494 H 0.0 **** 0.06
9864 H 4.0920147740628465 13.004445258547548 62.296616237163676 H 0.0 **** 0.06
9865 H 4.005305849150744 14.12293306370566 60.91412000756172 H 0.0 **** 0.06
9866 C 72.44035891763669 67.63652627428971 14.735396721823577 C 0.0 **** -0.24
9867 H 72.21693146369513 68.55391036874022 15.279591654848105 H 0.0 **** 0.06
9868 H 72.09027531235783 66.77850723089867 15.311530813419552 H 0.0 **** 0.06
9869 H 73.5161144988977 67.55680213080208 14.582781270628686 H 0.0 **** 0.06
9870 H 71.93537395304193 67.6554529056506 13.769244786077422 H 0.0 **** 0.06
9871 C 17.66829268892448 31.308563752609416 24.528272406522063 C 0.0 **** -0.24
9872 H 17.882449947207874 32.07276649175719 23.780146428295694 H 0.0 **** 0.06
9873 H 17.033003385133966 30.53912239674196 24.090321477237573 H 0.0 **** 0.06
9874 H 17.155974927130146 31.765419419926502 25.3752369801279 H 0.0 **** 0.06
9875 H 18.60222464058387 30.860949943994285 24.866523022894633 H 0.0 **** 0.06
9876 C 2.0382957391029954 10.133559771283242 92.60830009207234 C 0.0 **** -0.24
9877 H 1.2703552630986668 9.419112759846065 92.906050806993 H 0.0 **** 0.06
9878 H 2.563430439422371 9.757667075305871 91.73033496214543 H 0.0 **** 0.06
9879 H 2.7466968952018185 10.268112265698548 93.4256414991051 H 0.0 **** 0.06
9880 H 1.5717286113703643 11.090233132269947 92.37169325638479 H 0.0 **** 0.06
9881 C 99.96515089792643 94.13524827119511 74.54407529646016 C 0.0 **** -0.24
9882 H 100.14342170835991 93.73338087177848 73.54600979758004 H 0.0 **** 0.06
9883 H 100.37321438847789 93.45090583362054 75.28865990212677 H 0.0 **** 0.06
9884 H 98.89283179526211 94.24915682151993 74.70266322840371 H 0.0 **** 0.06
9885 H 100.45174021518034 95.10622600216902 74.63634465848327 H 0.0 **** 0.06
9886 C 94.170471940226 52.69526897176314 46.08889425944369 C 0.0 **** -0.24
9887 H 94.71516290319757 51.77679984930592 46.30397724557258 H 0.0 **** 0.06
9888 H 94.86288442019477 53.537852984028206 46.095659567263965 H 0.0 **** 0.06
9889 H 93.40356008481366 52.84918130211281 46.84846703016322 H 0.0 **** 0.06
9890 H 93.70043859225973 52.6184158425759 45.108245583510836 H 0.0 **** 0.06
9891 C 92.40613860703922 86.4535198735773 70.72392949407487 C 0.0 **** -0.24
9892 H 91.56496505051939 86.80772782055723 71.32108225422445 H 0.0 **** 0.06
9893 H 92.39916089813693 85.3638237814821 70.69727807896504 H 0.0 **** 0.06
9894 H 93.33819981555763 86.80089207187496 71.16798796742228 H 0.0 **** 0.06
9895 H 92.31947063643258 86.84223101042778 69.70917095987187 H 0.0 **** 0.06
9896 C 26.023059834824465 83.32410091189381 22.314272327863492 C 0.0 **** -0.24
9897 H 25.477882180315987 83.57861129220034 23.22395437441587 H 0.0 **** 0.06
9898 H 27.015539632698903 83.77500477272912 22.348655367328067 H 0.0 **** 0.06
9899 H 25.48154851964142 83.7027893053824 21.448538512886792 H 0.0 **** 0.06
9900 H 26.11774593461911 82.2408375152944 22.239556166129763 H 0.0 **** 0.06
9901 C 8.226380810489346 39.97814299834229 48.93788720948601 C 0.0 **** -0.24
9902 H 8.976819441678614 39.36575623538239 49.43796907909791 H 0.0 **** 0.06
9903 H 7.369322141269924 39.35753731488876 48.67508383228494 H 0.0 **** 0.06
9904 H 8.653179464743978 40.41013218801963 48.03318076247376 H 0.0 **** 0.06
9905 H 7.905455159482242 40.777279974753 49.60629456241861 H 0.0 **** 0.06
9906 C 4.8643918166552425 58.94979362036426 6.158859155853577 C 0.0 **** -0.24
9907 H 4.136529796034987 59.620703393290455 6.616310322701011 H 0.0 **** 0.06
9908 H 4.341035803801166 58.16315179664517 5.61405390652979 H 0.0 **** 0.06
9909 H 5.484106616371337 58.50293856722968 6.936740717367883 H 0.0 **** 0.06
9910 H 5.493791453887916 59.51203140870935 5.470441978226006 H 0.0 **** 0.06
9911 C 96.73448626102314 51.39536241691157 77.91867154303034 C 0.0 **** -0.24
9912 H 96.48720997037881 50.68413378244062 78.7062404426323 H 0.0 **** 0.06
9913 H 95.81851325202092 51.73158373564431 77.43192594704551 H 0.0 **** 0.06
9914 H 97.38099485231197 50.91363651312999 77.18492815002807 H 0.0 **** 0.06
9915 H 97.2509580348318 52.251401152951125 78.35225903316888 H 0.0 **** 0.06
9916 C 71.40811431914496 3.0302401942054757 101.48971909816709 C 0.0 **** -0.24
9917 H 72.44371216607252 2.92728093268866 101.16545061318755 H 0.0 **** 0.06
9918 H 71.25057962653956 4.034058703664613 101.88647201369895 H 0.0 **** 0.06
9919 H 71.19621478446606 2.2952913303006426 102.26596344151318 H 0.0 **** 0.06
9920 H 70.74343881552143 2.865700009414212 100.64237177492316 H 0.0 **** 0.06
9921 C 55.32776580685216 32.867476272746046 100.71473893689493 C 0.0 **** -0.24
9922 H 55.82123977909266 32.471743944880274 99.82684201771691 H 0.0 **** 0.06
9923 H 54.44466705192124 32.26667463861811 100.93725110889312 H 0.0 **** 0.06
9924 H 55.02878080215882 33.89969522827806 100.53362978676005 H 0.0 **** 0.06
9925 H 56.01524707401073 32.83052375830269 101.55946643277444 H 0.0 **** 0.06
9926 C 69.56234890753603 37.29506301628375 39.93262280461758 C 0.0 **** -0.24
9927 H 69.75372345352793 37.167392038295944 38.866999756854085 H 0.0 **** 0.06
9928 H 70.29755641208214 37.98060037732725 40.35401692399296 H 0.0 **** 0.06
9929 H 69.6374527639988 36.32862252910266 40.43253863022139 H 0.0 **** 0.06
9930 H 68.5607384506435 37.70125790983192 40.076357975328136 H 0.0 **** 0.06
9931 C 3.438672164866885 109.27000989835807 113.89668796626657 C 0.0 **** -0.24
9932 H 3.2873905602628195 109.05359452564704 114.9539919854061 H 0.0 **** 0.06
9933 H 3.6315160913872297 108.34087592593409 113.35948140412428 H 0.0 **** 0.06
9934 H 4.290904739374499 109.94045269857924 113.78158932116332 H 0.0 **** 0.06
9935 H 2.5448772684428906 109.74511644327202 113.49168915437252 H 0.0 **** 0.06
9936 C 57.277562451331335 23.81238993077575 40.106376791933826 C 0.0 **** -0.24
9937 H 57.04982842541787 24.155906484792553 39.096638597845754 H 0.0 **** 0.06
9938 H 56.617189298618484 22.984015943184232 40.36511885436096 H 0.0 **** 0.06
9939 H 57.127567659033105 24.630330217262696 40.8106201937199 H 0.0 **** 0.06
9940 H 58.314383621385645 23.47908611850295 40.151309903606546 H 0.0 **** 0.06
9941 C 105.35999555863152 52.41413030473258 0.08560759755397385 C 0.0 **** -0.24
9942 H 105.29508900889455 53.410044229637585 -0.35214018841023176 H 0.0 **** 0.06
9943 H 105.28404369664912 51.66509439350884 -0.7029538165181748 H 0.0 **** 0.06
9944 H 104.5470167172646 52.27593734108969 0.7974282096722902 H 0.0 **** 0.06
9945 H 106.31536084837914 52.30480759842674 0.598290959829967 H 0.0 **** 0.06
9946 C 100.78091117597359 99.27241457375936 13.32945131836152 C 0.0 **** -0.24
9947 H 101.23602282742809 99.351662164414 12.342169312081893 H 0.0 **** 0.06
9948 H 100.92588273539053 100.20596158791449 13.872832175271554 H 0.0 **** 0.06
9949 H 101.246368578827 98.45457427980193 13.879801416636724 H 0.0 **** 0.06
9950 H 99.71340881531617 99.07625536220198 13.221359135400888 H 0.0 **** 0.06
9951 C 64.44684391129219 63.6982318064085 110.95527424841745 C 0.0 **** -0.24
9952 H 65.3427622621792 64.31831591572643 110.99029676964182 H 0.0 **** 0.06
9953 H 63.78935252886538 64.05614316635987 110.16332660830766 H 0.0 **** 0.06
9954 H 63.92879304074242 63.75666779807423 111.91236205411555 H 0.0 **** 0.06
9955 H 64.72835294094101 62.66427312867566 110.7569370414125 H 0.0 **** 0.06
9956 C 2.01886285564305 77.49960701477693 63.56696536944986 C 0.0 **** -0.24
9957 H 1.979741143722194 78.1091168165388 64.47064669415388 H 0.0 **** 0.06
9958 H 3.0491634545341952 77.19475929491682 63.37974043127588 H 0.0 **** 0.06
9959 H 1.6512970186696947 78.07996035509677 62.72102513667866 H 0.0 **** 0.06
9960 H 1.396254342005392 76.61524960131055 63.699698617716365 H 0.0 **** 0.06
9961 C 87.51758413806482 24.30169679663402 84.79524039976201 C 0.0 **** -0.24
9962 H 88.10002623014242 25.1893366246548 85.03907069645459 H 0.0 **** 0.06
9963 H 88.05812305804278 23.702725695835255 84.06181426595953 H 0.0 **** 0.06
9964 H 86.55464677002675 24.60188253301112 84.38028764932477 H 0.0 **** 0.06
9965 H 87.35655697167675 23.71272085487948 85.69836838976215 H 0.0 **** 0.06
9966 C 111.26953263160587 80.29990220545118 102.54696574526821 C 0.0 **** -0.24
9967 H 110.78197945893464 79.50775322090948 103.11511751959159 H 0.0 **** 0.06
9968 H 110.74961847934793 81.24254111787684 102.7208615961847 H 0.0 **** 0.06
9969 H 111.23786838083758 80.05725317846311 101.48545771505894 H 0.0 **** 0.06
9970 H 112.30671268382042 80.39191388516717 102.86869998738598 H 0.0 **** 0.06
9971 C 12.541045796020228 37.99221469310879 77.20974674402129 C 0.0 **** -0.24
9972 H 12.821214486121988 37.2916432117438 77.99537169759674 H 0.0 **** 0.06
9973 H 11.912971577275343 37.483887097229996 76.47745005297611 H 0.0 **** 0.06
9974 H 13.439252285661325 38.36884222778835 76.72044790643173 H 0.0 **** 0.06
9975 H 11.98848190707507 38.82542396276432 77.64570442799157 H 0.0 **** 0.06
9976 C 94.59553679266315 40.37068082924796 69.99334650496729 C 0.0 **** -0.24
9977 H 94.53025167526465 40.026074622612896 68.96043359792763 H 0.0 **** 0.06
9978 H 95.63911554675704 40.564116123880694 70.24536998050823 H 0.0 **** 0.06
9979 H 94.19722824093435 39.6041317794236 70.65827839759156 H 0.0 **** 0.06
9980 H 94.01735917393714 41.28713322357788 70.1072725788063 H 0.0 **** 0.06
9981 C 76.35674399309386 103.06804642666725 9.458668946412843 C 0.0 **** -0.24
9982 H 75.6083559958413 102.83145065150899 10.215365999500477 H 0.0 **** 0.06
9983 H 76.8037617802708 104.0377730734442 9.680272084577979 H 0.0 **** 0.06
9984 H 75.88167682871364 103.10176782047799 8.477484104836833 H 0.0 **** 0.06
9985 H 77.13097413855368 102.30125971084436 9.460493321026064 H 0.0 **** 0.06
9986 C 108.72735749323125 15.637231609353478 94.07705311696697 C 0.0 **** -0.24
9987 H 108.83451885143712 16.20354243643166 93.1516877476399 H 0.0 **** 0.06
9988 H 107.6692607515737 15.487058978201645 94.2904002374961 H 0.0 **** 0.06
9989 H 109.18876495931376 16.18974586030646 94.89598946857217 H 0.0 **** 0.06
9990 H 109.21831965383456 14.67055416624305 93.9703415271861 H 0.0 **** 0.06
9991 C 104.67048570791093 1.739714294535755 104.36668543666087 C 0.0 **** -0.24
9992 H 104.53120211251127 0.6584394281952921 104.3508950116405 H 0.0 **** 0.06
9993 H 104.19448415012573 2.1539221431711937 105.25622239724667 H 0.0 **** 0.06
9994 H 104.21982524741094 2.1763346047613883 103.47516514352213 H 0.0 **** 0.06
9995 H 105.7355701130868 1.9674670923458848 104.38449951165865 H 0.0 **** 0.06
9996 C 54.8106052956175 57.88295121145927 95.62736203942458 C 0.0 **** -0.24
9997 H 54.058098223073934 58.5063832893743 96.11049154392538 H 0.0 **** 0.06
9998 H 55.78287898791624 58.37179534000302 95.68903730666128 H 0.0 **** 0.06
9999 H 54.54279909734898 57.735794197033215 94.5809652600624 H 0.0 **** 0.06
10000 H 54.85766740842197 56.91584213640698 96.12866213838923 H 0.0 **** 0.06
10001 C 107.27085040625313 38.10764688625062 12.786151132700468 C 0.0 **** -0.24
10002 H 107.70208455973389 39.05879666944389 12.472423855996084 H 0.0 **** 0.06
10003 H 106.18489787402905 38.16350845788213 12.722976453031947 H 0.0 **** 0.06
10004 H 107.56564217734397 37.89678484042096 13.81481660014731 H 0.0 **** 0.06
10005 H 107.6334918938847 37.31268395644594 12.133915983126485 H 0.0 **** 0.06
10006 C 53.35543243671907 65.63156594461687 100.39154690664644 C 0.0 **** -0.24
10007 H 53.072166372919995 64.7434203940895 100.9569816151778 H 0.0 **** 0.06
10008 H 52.48856046766957 66.0073653871808 99.84854295573545 H 0.0 **** 0.06
10009 H 54.14512672884572 65.37594230668893 99.6855327454289 H 0.0 **** 0.06
10010 H 53.71563584357737 66.39839221295414 101.07770618943607 H 0.0 **** 0.06
10011 C 112.891693791936 89.05392546361432 98.25609086719635 C 0.0 **** -0.24
10012 H 111.97552032092122 88.67471107697824 98.70964264890273 H 0.0 **** 0.06
10013 H 112.70051166478729 90.0317363794733 97.81428123912383 H 0.0 **** 0.06
10014 H 113.22579770164356 88.36318918697364 97.48171076345608 H 0.0 **** 0.06
10015 H 113.66368051888492 89.14506139935631 99.02027559421487 H 0.0 **** 0.06
10016 C 48.94212753840786 77.05983045127302 61.40833748342823 C 0.0 **** -0.24
10017 H 49.800911761448404 77.15771278604505 62.07336780772465 H 0.0 **** 0.06
10018 H 48.72673804509644 76.00378703368538 61.24683145306983 H 0.0 **** 0.06
10019 H 49.1658540609616 77.5368680779892 60.45463834514021 H 0.0 **** 0.06
10020 H 48.07630735257061 77.54248752656964 61.86211180064504 H 0.0 **** 0.06
10021 C 89.28300974698107 60.24389818172435 22.98818783878957 C 0.0 **** -0.24
10022 H 88.38718665459879 60.32797317286165 23.603426764932863 H 0.0 **** 0.06
10023 H 89.76061594730447 59.281056492577136 23.173969547400787 H 0.0 **** 0.06
10024 H 89.97481165275678 61.04782042523556 23.240141640928783 H 0.0 **** 0.06
10025 H 89.00916561256315 60.31594775807736 21.935562640367323 H 0.0 **** 0.06
10026 C 59.679851978581596 56.709801143227736 78.96242206060654 C 0.0 **** -0.24
10027 H 59.17887163347284 55.91041138700384 79.50937665285164 H 0.0 **** 0.06
10028 H 60.59488890283299 56.98791802940683 79.48456565386928 H 0.0 **** 0.06
10029 H 59.02043424970147 57.57451793815406 78.89862868961269 H 0.0 **** 0.06
10030 H 59.92480790082597 56.36389115811865 77.95877701998992 H 0.0 **** 0.06
10031 C 100.59302057400907 17.078311723842205 64.1958065261637 C 0.0 **** -0.24
10032 H 100.46756650346612 18.102434619268735 63.84445752550778 H 0.0 **** 0.06
10033 H 99.91659633354504 16.896374159999283 65.03141502829158 H 0.0 **** 0.06
10034 H 101.62205912110079 16.928799169113404 64.52125570331498 H 0.0 **** 0.06
10035 H 100.36379185537771 16.385288937804177 63.385323794676424 H 0.0 **** 0.06
10036 C 97.57247044276124 20.08539934058296 115.3368942299368 C 0.0 **** -0.24
10037 H 96.80633783527179 20.784545686590096 115.00284673916309 H 0.0 **** 0.06
10038 H 97.27372674290126 19.648737594390823 116.29008586737677 H 0.0 **** 0.06
10039 H 98.51798466180387 20.613119913937012 115.45869475444414 H 0.0 **** 0.06
10040 H 97.68974680213319 19.295043390438785 114.59515754523778 H 0.0 **** 0.06
10041 C 73.5151066662039 7.57518067671063 111.30193471095379 C 0.0 **** -0.24
10042 H 72.9908179664892 7.332586830035467 110.37694432761812 H 0.0 **** 0.06
10043 H 73.42281336880455 6.743382666907877 112.00039486071515 H 0.0 **** 0.06
10044 H 73.07629114438458 8.471287968376856 111.74252670355978 H 0.0 **** 0.06
10045 H 74.56820429618276 7.7550684953107805 111.08610074607343 H 0.0 **** 0.06
10046 C 37.44545849077042 29.712466005359317 11.106691831882443 C 0.0 **** -0.24
10047 H 37.72735832677 30.433656710029794 11.873180544411412 H 0.0 **** 0.06
10048 H 36.87186493670987 28.904737008334635 11.562095935420842 H 0.0 **** 0.06
10049 H 38.34325997749414 29.30445555725484 10.643682706391957 H 0.0 **** 0.06
10050 H 36.837605269037454 30.20651277789746 10.348645786358205 H 0.0 **** 0.06
10051 C 75.56953377327709 88.83341569149087 24.765534818324113 C 0.0 **** -0.24
10052 H 76.45865507622452 88.67314317794043 25.376259508399343 H 0.0 **** 0.06
10053 H 75.18995823779106 89.84117478293545 24.933512696408954 H 0.0 **** 0.06
10054 H 74.8051132125208 88.10668577667204 25.040462788790798 H 0.0 **** 0.06
10055 H 75.82465298781536 88.71048826028544 23.71238209586672 H 0.0 **** 0.06
10056 C 86.23479094115402 45.25824288268712 4.448408832407495 C 0.0 **** -0.24
10057 H 86.20287591711957 44.823991449069425 5.44794507976809 H 0.0 **** 0.06
10058 H 86.94870223081074 44.70712859043295 3.835246265655286 H 0.0 **** 0.06
10059 H 86.54330360713965 46.30161725924206 4.516109762639104 H 0.0 **** 0.06
10060 H 85.24516075988663 45.200564505121235 3.9946788581439137 H 0.0 **** 0.06
10061 C 28.78063545443375 46.490803435028056 101.62068480922494 C 0.0 **** -0.24
10062 H 28.222565482912486 46.31770483791169 100.70092054859678 H 0.0 **** 0.06
10063 H 29.547606695873384 47.24659767186728 101.44388297151632 H 0.0 **** 0.06
10064 H 29.25249901592764 45.562427749552285 101.9392296270418 H 0.0 **** 0.06
10065 H 28.10051516443204 46.83844346719823 102.39784393899043 H 0.0 **** 0.06
10066 C 28.465124198390924 95.59112990309245 62.221519248638515 C 0.0 **** -0.24
10067 H 27.999562063608522 95.69134355982177 61.240326730864695 H 0.0 **** 0.06
10068 H 29.171561878792517 96.4069431661191 62.37273777226159 H 0.0 **** 0.06
10069 H 28.99223430796866 94.63852610685316 62.27640554735615 H 0.0 **** 0.06
10070 H 27.69681452516781 95.62645086660511 62.993554351662965 H 0.0 **** 0.06
10071 C 69.99465259944384 66.23627974923627 97.09242280627728 C 0.0 **** -0.24
10072 H 69.13408987924473 66.50512623326834 97.70550188881438 H 0.0 **** 0.06
10073 H 69.9903991056537 65.16100741873774 96.9122425887403 H 0.0 **** 0.06
10074 H 70.91185505053676 66.5144262677703 97.61151406113873 H 0.0 **** 0.06
10075 H 69.94087286740302 66.76434712055107 96.1405482717845 H 0.0 **** 0.06
10076 C 105.70033862737532 83.02344490115712 62.6732808546581 C 0.0 **** -0.24
10077 H 106.48383262933794 82.7591661415423 61.964435081400055 H 0.0 **** 0.06
10078 H 105.58061716651355 82.21823677151968 63.39912400281868 H 0.0 **** 0.06
10079 H 104.76161759422496 83.17215476183804 62.13834550248349 H 0.0 **** 0.06
10080 H 105.97271384040477 83.94247189575734 63.19065652880367 H 0.0 **** 0.06
10081 C 101.32198203748806 47.113104186448425 55.36111610697086 C 0.0 **** -0.24
10082 H 101.02549707642456 47.11668509290922 56.41058047831129 H 0.0 **** 0.06
10083 H 102.15796727611277 47.79673488547877 55.217132646315356 H 0.0 **** 0.06
10084 H 100.48025472277108 47.43189397077896 54.7461667057066 H 0.0 **** 0.06
10085 H 101.62106761466231 46.10521411098949 55.072472734833866 H 0.0 **** 0.06
10086 C 10.996189553780702 1.8134989168764957 14.830776461958521 C 0.0 **** -0.24
10087 H 11.861414116601367 1.7728502714264351 14.169101544541263 H 0.0 **** 0.06
10088 H 11.332285887431041 1.8400130377773465 15.868110015962287 H 0.0 **** 0.06
10089 H 10.376402122054134 0.9305110124047022 14.671727692988838 H 0.0 **** 0.06
10090 H 10.414433002364728 2.709311081432057 14.613683321032028 H 0.0 **** 0.06
10091 C 91.8493845237079 68.76727501602693 83.50405674931145 C 0.0 **** -0.24
10092 H 91.39164089341998 67.77820335191213 83.49621123155116 H 0.0 **** 0.06
10093 H 92.58971493427447 68.81858542459854 84.30225889466772 H 0.0 **** 0.06
10094 H 91.07945114210406 69.52139849472236 83.67260948187274 H 0.0 **** 0.06
10095 H 92.33410476574812 68.95152902236974 82.54599765558959 H 0.0 **** 0.06
10096 C 99.36408626470904 28.81420641143876 69.04340932644786 C 0.0 **** -0.24
10097 H 100.35298296692571 29.22452815170692 68.83324731908652 H 0.0 **** 0.06
10098 H 99.03714197227441 29.14243433623642 70.02976949431114 H 0.0 **** 0.06
10099 H 99.41036828489115 27.72589992700216 69.01828021041113 H 0.0 **** 0.06
10100 H 98.65840504632638 29.165676458088285 68.29109666291053 H 0.0 **** 0.06
10101 C 17.81390742585816 42.639625487300975 46.66564865641271 C 0.0 **** -0.24
10102 H 18.860586232128043 42.419122186626595 46.87782402279191 H 0.0 **** 0.06
10103 H 17.18694454040167 42.21804907575097 47.451725916672785 H 0.0 **** 0.06
10104 H 17.53852133384521 42.201405228188776 45.70565171025373 H 0.0 **** 0.06
10105 H 17.67168412147248 43.719587928388904 46.62672296658076 H 0.0 **** 0.06
10106 C 71.55958956189164 102.64808191891257 104.50862006279091 C 0.0 **** -0.24
10107 H 71.05854874074049 102.03575195344129 105.25801157141971 H 0.0 **** 0.06
10108 H 71.0931281047906 103.63377225722336 104.47415343444757 H 0.0 **** 0.06
10109 H 71.47293747283248 102.17086961995564 103.53227974670686 H 0.0 **** 0.06
10110 H 72.61256233678947 102.75283919172367 104.769149859092 H 0.0 **** 0.06
10111 C 32.14618476446804 0.6101754794277525 111.62311797991993 C 0.0 **** -0.24
10112 H 32.645791967219196 0.49400934330685686 110.66108645519262 H 0.0 **** 0.06
10113 H 32.596279450647316 1.4411098072149997 112.16677641946129 H 0.0 **** 0.06
10114 H 32.25808144584613 -0.3066451439945297 112.2029288949601 H 0.0 **** 0.06
10115 H 31.087427616656576 0.8114289407333644 111.46114305028829 H 0.0 **** 0.06
10116 C 80.45879824958591 100.53662941642511 14.545629929588955 C 0.0 **** -0.24
10117 H 80.16322886493865 101.57819241348824 14.429842732263438 H 0.0 **** 0.06
10118 H 80.5420171901805 100.29749557018738 15.605769618583846 H 0.0 **** 0.06
10119 H 81.4212571982197 100.3753055485399 14.060344527094049 H 0.0 **** 0.06
10120 H 79.70778857412162 99.89278965292067 14.085719621082756 H 0.0 **** 0.06
10121 C 81.18257677178991 28.98809046033508 13.199846463362746 C 0.0 **** -0.24
10122 H 80.96985134925598 29.447769448678777 14.16521307684178 H 0.0 **** 0.06
10123 H 81.3886997354611 27.926081319226085 13.34152777531591 H 0.0 **** 0.06
10124 H 82.05134947716272 29.471195621266183 12.751752732218876 H 0.0 **** 0.06
10125 H 80.32134827177816 29.106433187189772 12.542974350535616 H 0.0 **** 0.06
10126 C 93.31802101059642 56.79984756617168 8.876774403446348 C 0.0 **** -0.24
10127 H 94.02896723667976 57.41481538733673 8.326844880584929 H 0.0 **** 0.06
10128 H 92.99844884268461 55.96684213560178 8.25007098485112 H 0.0 **** 0.06
10129 H 92.45160697910197 57.4015595916036 9.15024814150027 H 0.0 **** 0.06
10130 H 93.79212607250452 56.41416826935125 9.778881592199596 H 0.0 **** 0.06
10131 C 34.65172301230791 102.81211161771716 35.78637182759608 C 0.0 **** -0.24
10132 H 34.24531430381796 101.8118868118952 35.6316497015379 H 0.0 **** 0.06
10133 H 35.341027111538835 103.05174603051188 34.976959238738495 H 0.0 **** 0.06
10134 H 35.18071753740662 102.84521484377726 36.73830957078432 H 0.0 **** 0.06
10135 H 33.83778537440628 103.53605744658388 35.798052344609005 H 0.0 **** 0.06
10136 C 26.639882700389478 66.48671104451887 92.23577175118987 C 0.0 **** -0.24
10137 H 27.08101065710457 65.66025188220112 92.79459644278265 H 0.0 **** 0.06
10138 H 27.364335968574665 67.29702543603742 92.15562445074451 H 0.0 **** 0.06
10139 H 25.751193897733003 66.84292005761642 92.75664207762838 H 0.0 **** 0.06
10140 H 26.36433092161394 66.14417006098341 91.23923557715989 H 0.0 **** 0.06
10141 C 91.41133194418148 42.679242177229355 46.80978933997932 C 0.0 **** -0.24
10142 H 91.28482767338915 42.26004737657661 45.81159048995613 H 0.0 **** 0.06
10143 H 91.30863418766981 43.763069373930165 46.76431091871763 H 0.0 **** 0.06
10144 H 92.40146362835688 42.42270428338651 47.187408392752104 H 0.0 **** 0.06
10145 H 90.65165108806434 42.269391800867254 47.47524948915435 H 0.0 **** 0.06
10146 C 43.31101446382718 37.23621943165793 25.50868637952371 C 0.0 **** -0.24
10147 H 44.22995787424247 37.66780192278574 25.110093603762166 H 0.0 **** 0.06
10148 H 43.10202491567833 37.66820081796297 26.486876519568334 H 0.0 **** 0.06
10149 H 43.429144698859375 36.156692800984274 25.6038077292652 H 0.0 **** 0.06
10150 H 42.48476214375387 37.4530271574159 24.83097912859163 H 0.0 **** 0.06
10151 C 82.1318337611051 9.286159373234113 56.9179584250692 C 0.0 **** -0.24
10152 H 83.21722501154295 9.249441541577994 57.01690412512528 H 0.0 **** 0.06
10153 H 81.838518559291 8.836099455133478 55.96963052508489 H 0.0 **** 0.06
10154 H 81.79988175930663 10.32425496079037 56.94655921184162 H 0.0 **** 0.06
10155 H 81.67391103824048 8.734969838135044 57.739806633616794 H 0.0 **** 0.06
10156 C 55.60210620133648 16.58953061999739 104.054920431 C 0.0 **** -0.24
10157 H 56.435443042045904 15.914563981131977 103.86136613412617 H 0.0 **** 0.06
10158 H 55.97479478828387 17.506955305175325 104.5098761287034 H 0.0 **** 0.06
10159 H 54.89567351522862 16.109122764402557 104.73210705556926 H 0.0 **** 0.06
10160 H 55.10080330014566 16.82575435824552 103.1160219640493 H 0.0 **** 0.06
10161 C 24.740982509394918 53.74422884162944 7.364607199066043 C 0.0 **** -0.24
10162 H 25.07448954351824 53.82367672610594 8.398755439585003 H 0.0 **** 0.06
10163 H 24.45859878899961 52.71211400376494 7.152166465032593 H 0.0 **** 0.06
10164 H 25.548932114237573 54.044078730702864 6.697240708770835 H 0.0 **** 0.06
10165 H 23.88058042495322 54.395115461724544 7.208682782074106 H 0.0 **** 0.06
10166 C 78.46336627434891 112.72227356847432 87.76049026686043 C 0.0 **** -0.24
10167 H 78.62799988986171 112.06849251648819 88.61772636963842 H 0.0 **** 0.06
10168 H 77.44286462083443 113.10319096649305 87.78540633806597 H 0.0 **** 0.06
10169 H 78.61965790733589 112.16003033435577 86.8401425087696 H 0.0 **** 0.06
10170 H 79.16383181113679 113.55616020943638 87.80033531329133 H 0.0 **** 0.06
10171 C 110.72811442033498 66.86104458609731 114.64579613733657 C 0.0 **** -0.24
10172 H 111.3236782928556 67.76458501671024 114.77801922306278 H 0.0 **** 0.06
10173 H 111.39045919634354 66.00414710134115 114.52436043120389 H 0.0 **** 0.06
10174 H 110.10238748157656 66.96561785171446 113.7588988272667 H 0.0 **** 0.06
10175 H 110.09555395415693 66.71146502366025 115.52043019253897 H 0.0 **** 0.06
10176 C 57.94658834887311 61.15591395861773 80.34341977311567 C 0.0 **** -0.24
10177 H 57.28735199496883 60.60201061926415 81.01268440202315 H 0.0 **** 0.06
10178 H 58.74990348788188 60.50291943277065 80.00219624884636 H 0.0 **** 0.06
10179 H 58.37022548523741 62.00769369181137 80.8749048445705 H 0.0 **** 0.06
10180 H 57.375581639404274 61.51084960048547 79.48426513056063 H 0.0 **** 0.06
10181 C 24.834559518636325 8.650868959377771 106.42402267837244 C 0.0 **** -0.24
10182 H 24.234225206829336 8.287928437854099 105.58948719501154 H 0.0 **** 0.06
10183 H 24.76133402426953 7.950762955073936 107.25604379884325 H 0.0 **** 0.06
10184 H 24.46578817611487 9.628496202893661 106.73715255587359 H 0.0 **** 0.06
10185 H 25.87517580280786 8.738506627282511 106.11137278735265 H 0.0 **** 0.06
10186 C 107.30952374478883 40.94616621135034 113.21918223978813 C 0.0 **** -0.24
10187 H 106.47971297049662 40.43338973516499 112.7333284667945 H 0.0 **** 0.06
10188 H 106.94560721615943 41.857080244337766 113.69396104205266 H 0.0 **** 0.06
10189 H 108.06553195735336 41.200650351668976 112.47490333926902 H 0.0 **** 0.06
10190 H 107.74811385947675 40.29301910185159 113.97355357748864 H 0.0 **** 0.06
10191 C 67.98915404863804 56.63338736561545 30.551825351558307 C 0.0 **** -0.24
10192 H 67.0003439667967 57.05879532439849 30.377723951683095 H 0.0 **** 0.06
10193 H 67.95000118978803 55.96485305694485 31.412044803547133 H 0.0 **** 0.06
10194 H 68.70044170243719 57.435369886012865 30.747021185965025 H 0.0 **** 0.06
10195 H 68.3046127134154 56.07420432216388 29.671154192378026 H 0.0 **** 0.06
10196 C 51.61416786204421 52.43781959712794 65.90087529611486 C 0.0 **** -0.24
10197 H 51.12181770596783 53.27297998070307 66.4003631186215 H 0.0 **** 0.06
10198 H 52.45563968999335 52.09864761119127 66.50646028599408 H 0.0 **** 0.06
10199 H 51.97484255267685 52.760291036014166 64.92466403125667 H 0.0 **** 0.06
10200 H 50.9040005792105 51.620149003166375 65.77521377042589 H 0.0 **** 0.06
10201 C 61.92024412895489 20.864805021076137 95.31952754041929 C 0.0 **** -0.24
10202 H 61.643390161551594 21.779033108868134 95.84325204945623 H 0.0 **** 0.06
10203 H 61.01976284760613 20.30782742092174 95.06032495769145 H 0.0 **** 0.06
10204 H 62.553032146656435 20.25364190709695 95.96433186616564 H 0.0 **** 0.06
10205 H 62.46611667863941 21.118224334985968 94.41021823200776 H 0.0 **** 0.06
10206 C 97.51423956145197 71.69203969714626 95.53952676450325 C 0.0 **** -0.24
10207 H 97.88855032707897 70.78755411651517 95.05971653391146 H 0.0 **** 0.06
10208 H 98.33182433849197 72.19242429872021 96.05936904034314 H 0.0 **** 0.06
10209 H 96.73560783372199 71.42855237827581 96.25450686948886 H 0.0 **** 0.06
10210 H 97.10176750455878 72.3597270357712 94.78242569243025 H 0.0 **** 0.06
10211 C 81.76816391228341 0.7704782796140535 89.27008700873671 C 0.0 **** -0.24
10212 H 81.29052691580472 1.2682329662314658 88.42652569443197 H 0.0 **** 0.06
10213 H 82.02772749939304 -0.25026814825099564 88.989833528173 H 0.0 **** 0.06
10214 H 81.08010551518306 0.7513604289332818 90.116353402681 H 0.0 **** 0.06
10215 H 82.67131504835066 1.3125686210873084 89.54869172495188 H 0.0 **** 0.06
10216 C 34.652667259636246 75.4764856382141 108.39486813880333 C 0.0 **** -0.24
10217 H 34.32143738350294 76.43786479412688 108.78801119910119 H 0.0 **** 0.06
10218 H 34.56372512055185 74.71635685570358 109.171186436672 H 0.0 **** 0.06
10219 H 35.69389647510212 75.55336991158097 108.07956009527844 H 0.0 **** 0.06
10220 H 34.03415922377178 75.19963201927968 107.54164285454519 H 0.0 **** 0.06
10221 C 112.33917011327786 66.32818995719788 94.16481313101143 C 0.0 **** -0.24
10222 H 112.1984652041364 67.18561161299317 94.82315863537202 H 0.0 **** 0.06
10223 H 112.9640046062213 65.58660399311992 94.66365251531506 H 0.0 **** 0.06
10224 H 112.82505327296043 66.65318476633149 93.24530976970851 H 0.0 **** 0.06
10225 H 111.37028501918356 65.88855530505839 93.92943351755144 H 0.0 **** 0.06
10226 C 11.061753436121759 44.39528537721418 92.03202880013248 C 0.0 **** -0.24
10227 H 12.000938292461257 44.50432641818753 92.57557225264992 H 0.0 **** 0.06
10228 H 10.312642563135494 43.95235074604804 92.68913946533647 H 0.0 **** 0.06
10229 H 11.216135483205615 43.748936961093136 91.16869723194367 H 0.0 **** 0.06
10230 H 10.71966503331813 45.37410644798189 91.69723134022823 H 0.0 **** 0.06
10231 C 107.08205886957153 114.97354490678283 100.31078647873349 C 0.0 **** -0.24
10232 H 107.5327719477366 114.5160760069601 99.43055842254432 H 0.0 **** 0.06
10233 H 107.03604862585686 116.05437504100907 100.17569073988875 H 0.0 **** 0.06
10234 H 107.68499819611912 114.74298698029648 101.1901566352565 H 0.0 **** 0.06
10235 H 106.07418793635425 114.5816159069741 100.44960084448832 H 0.0 **** 0.06
10236 C 17.74862113396162 4.338986835571376 99.41652393292468 C 0.0 **** -0.24
10237 H 17.86878292861168 3.592286925948713 98.63150549314513 H 0.0 **** 0.06
10238 H 16.70135498950195 4.638292701498102 99.474543474438 H 0.0 **** 0.06
10239 H 18.36260416761533 5.209845818683647 99.18613504477948 H 0.0 **** 0.06
10240 H 18.059299310394266 3.9169113033963896 100.37144161571905 H 0.0 **** 0.06
10241 C 93.443086460232 0.45082261719061023 18.552378667302975 C 0.0 **** -0.24
10242 H 93.00214084014306 0.2365033887408572 17.57927449158501 H 0.0 **** 0.06
10243 H 92.68662160064139 0.3346807919618442 19.328161830531016 H 0.0 **** 0.06
10244 H 93.81969646809486 1.4736526561416952 18.562730900073774 H 0.0 **** 0.06
10245 H 94.26542835056185 -0.23995402536368715 18.739049524305898 H 0.0 **** 0.06
10246 C 67.58095007787279 2.3775975986328515 114.74471426977583 C 0.0 **** -0.24
10247 H 66.67215857458177 2.8393674965830087 114.36004810008282 H 0.0 **** 0.06
10248 H 67.60475529657077 1.3268002382151831 114.45511488810716 H 0.0 **** 0.06
10249 H 67.5962139144792 2.456771264745445 115.83209053616761 H 0.0 **** 0.06
10250 H 68.45045920872275 2.8893564207654983 114.33217416848136 H 0.0 **** 0.06
10251 C 114.57864609987422 91.83645254921765 86.90228323986439 C 0.0 **** -0.24
10252 H 113.76365793126027 91.92587519592087 87.62166597597454 H 0.0 **** 0.06
10253 H 114.35475207986136 91.03356987042122 86.19803003614741 H 0.0 **** 0.06
10254 H 115.50536492616436 91.60937712817122 87.42968683137805 H 0.0 **** 0.06
10255 H 114.68945668937073 92.77550529261424 86.36073594645599 H 0.0 **** 0.06
10256 C 7.095067036519822 5.418666945377254 27.905744609359886 C 0.0 **** -0.24
10257 H 8.05631768751897 5.860557585385635 27.641813843091427 H 0.0 **** 0.06
10258 H 7.260884380900791 4.47576764241434 28.42693850064012 H 0.0 **** 0.06
10259 H 6.517837610363017 5.238552164567878 26.999974057262193 H 0.0 **** 0.06
10260 H 6.548917971025389 6.101950010455894 28.555565328208274 H 0.0 **** 0.06
10261 C 44.53217536763162 82.99983397234291 110.5290386033978 C 0.0 **** -0.24
10262 H 44.21092084002848 81.96149677344886 110.45196787138218 H 0.0 **** 0.06
10263 H 44.012469965596495 83.59783276195236 109.77947848012985 H 0.0 **** 0.06
10264 H 45.60729890804288 83.06013682030476 110.3599661512302 H 0.0 **** 0.06
10265 H 44.298919654094874 83.3801355064567 111.52297975066028 H 0.0 **** 0.06
10266 C 103.12583936938093 16.822872107148726 57.27506651008372 C 0.0 **** -0.24
10267 H 102.90032514206962 15.803472594253066 56.96299202882213 H 0.0 **** 0.06
10268 H 102.20502993304814 17.405512217377435 57.30590560658828 H 0.0 **** 0.06
10269 H 103.8189742781984 17.274037782794267 56.564064987275515 H 0.0 **** 0.06
10270 H 103.58120351897546 16.807260351739245 58.265109085131684 H 0.0 **** 0.06
10271 C 39.70354772205498 15.78282298728692 32.93744865633926 C 0.0 **** -0.24
10272 H 39.528301023838814 16.749992188939018 32.46522101790762 H 0.0 **** 0.06
10273 H 40.43407505750283 15.220825707493503 32.354002405879584 H 0.0 **** 0.06
10274 H 38.767887396044486 15.225771572765609 32.98276988763877 H 0.0 **** 0.06
10275 H 40.08560956577502 15.93542033071958 33.946514717904336 H 0.0 **** 0.06
10276 C 100.58749985801819 62.505737149725604 12.128846108747666 C 0.0 **** -0.24
10277 H 100.25068182707304 63.43655273360439 12.584065242036502 H 0.0 **** 0.06
10278 H 101.53244488441408 62.20246936424111 12.577529732105006 H 0.0 **** 0.06
10279 H 100.7246197862865 62.65481487390481 11.057619458059264 H 0.0 **** 0.06
10280 H 99.83914409415138 61.729450243466175 12.294115435196204 H 0.0 **** 0.06
10281 C 23.574094428183713 80.02438720035781 49.286465561350724 C 0.0 **** -0.24
10282 H 23.020934570208027 79.93420634065228 50.221173601787015 H 0.0 **** 0.06
10283 H 24.557008023442393 80.45222654160725 49.48592223477333 H 0.0 **** 0.06
10284 H 23.028350714731033 80.67170018338916 48.60103564254743 H 0.0 **** 0.06
10285 H 23.692052255703686 79.03742396363162 48.83813183942982 H 0.0 **** 0.06
10286 C 29.236110365639234 90.30061652917774 12.838188611173166 C 0.0 **** -0.24
10287 H 28.79941752440135 90.68490593479561 13.759792945088265 H 0.0 **** 0.06
10288 H 29.622129682499448 89.29577091973033 13.01098609299666 H 0.0 **** 0.06
10289 H 30.04865694024491 90.95357581154872 12.52167365418535 H 0.0 **** 0.06
10290 H 28.472137295928604 90.26788687369009 12.061519786429272 H 0.0 **** 0.06
10291 C 115.43143987762052 73.00111095482396 27.33984926629438 C 0.0 **** -0.24
10292 H 115.22939272317807 73.26626081657469 26.30179045970806 H 0.0 **** 0.06
10293 H 115.73377420212063 71.95470920549175 27.39420879574098 H 0.0 **** 0.06
10294 H 114.53100563927241 73.15153883768494 27.934456804185828 H 0.0 **** 0.06
10295 H 116.231888345096 73.63151716091119 27.726765025959935 H 0.0 **** 0.06
10296 C 23.85018381056382 103.29623016106929 102.78976900379466 C 0.0 **** -0.24
10297 H 22.862476615283143 103.73936538786425 102.91745310215074 H 0.0 **** 0.06
10298 H 23.790328499634338 102.47716399921187 102.07217817922216 H 0.0 **** 0.06
10299 H 24.202951179403293 102.91513353518027 103.74860222844171 H 0.0 **** 0.06
10300 H 24.543316966351064 104.05254366115098 102.42169582929941 H 0.0 **** 0.06
10301 C 111.05445288440825 18.472391249498514 11.287711480994602 C 0.0 **** -0.24
10302 H 111.2069702242865 18.324436361882988 10.218913403204553 H 0.0 **** 0.06
10303 H 112.0154485147885 18.42337810871743 11.80163148845611 H 0.0 **** 0.06
10304 H 110.39578858864816 17.69375996340071 11.671899192092042 H 0.0 **** 0.06
10305 H 110.60157554365117 19.4490586811267 11.457415275356226 H 0.0 **** 0.06
10306 C 88.15474803948794 58.034090445700144 77.38793710215964 C 0.0 **** -0.24
10307 H 87.77492360934187 58.14033934630953 78.40422994617722 H 0.0 **** 0.06
10308 H 89.18055894695658 57.6680321523782 77.42022979771451 H 0.0 **** 0.06
10309 H 88.12938983945844 59.00151827273625 76.88742650624997 H 0.0 **** 0.06
10310 H 87.533225719678 57.32530401468058 76.84077684001579 H 0.0 **** 0.06
10311 C 115.6361012859542 19.7621142814549 64.05109338082728 C 0.0 **** -0.24
10312 H 115.55974742801811 19.96426974080856 65.1191943969204 H 0.0 **** 0.06
10313 H 115.51958509736198 18.692818295583493 63.87435732795862 H 0.0 **** 0.06
10314 H 116.6122320441099 20.085915704420074 63.68961039424583 H 0.0 **** 0.06
10315 H 114.85364817568544 20.306551787787157 63.521587442884 H 0.0 **** 0.06
10316 C 7.003987504538827 62.29951760237357 36.25292730802529 C 0.0 **** -0.24
10317 H 6.1210153877182165 62.125097984472575 36.867844047595305 H 0.0 **** 0.06
10318 H 6.77367997576664 63.04409812941205 35.49015873188087 H 0.0 **** 0.06
10319 H 7.302249115190307 61.367263436520915 35.772835898829356 H 0.0 **** 0.06
10320 H 7.817646138565806 62.66198643452883 36.88076526387371 H 0.0 **** 0.06
10321 C 78.29798535257157 26.895092868167595 81.31374256232537 C 0.0 **** -0.24
10322 H 78.57084147533004 26.364044712177247 82.22596565756035 H 0.0 **** 0.06
10323 H 78.45718445224291 27.964505087186993 81.45498262028633 H 0.0 **** 0.06
10324 H 77.24833414574587 26.710371082171008 81.08614920482677 H 0.0 **** 0.06
10325 H 78.91697281383372 26.541179633289175 80.48960211861306 H 0.0 **** 0.06
10326 C 57.252862581786815 56.49713820792745 64.22747679299937 C 0.0 **** -0.24
10327 H 57.360352776840244 57.118593319465816 65.11748075748667 H 0.0 **** 0.06
10328 H 57.507230817720625 55.465761458589725 64.47191361634816 H 0.0 **** 0.06
10329 H 57.92116928230463 56.862251706014334 63.44663690555416 H 0.0 **** 0.06
10330 H 56.22280378933711 56.54426450457855 63.87466022773131 H 0.0 **** 0.06
10331 C 109.12442517290957 52.285515621656394 104.41034649983044 C 0.0 **** -0.24
10332 H 109.26743515699035 52.43441535406551 103.33967866310081 H 0.0 **** 0.06
10333 H 109.77538848701136 51.48057465234588 104.75417415431707 H 0.0 **** 0.06
10334 H 108.08522334209098 52.02165133374317 104.60369768539181 H 0.0 **** 0.06
10335 H 109.37172172075958 53.2050940637155 104.9412631521671 H 0.0 **** 0.06
10336 C 31.487725526172994 33.904756396206835 100.40263293284303 C 0.0 **** -0.24
10337 H 31.365401426900874 34.81828634472589 100.98408660494425 H 0.0 **** 0.06
10338 H 30.645755473827478 33.79270150840546 99.71905431703232 H 0.0 **** 0.06
10339 H 31.52599483305699 33.04868819861156 101.07592427317309 H 0.0 **** 0.06
10340 H 32.415065176309945 33.95866070415968 99.83235926913352 H 0.0 **** 0.06
10341 C 22.264417983601533 31.082750581139976 15.852818129393455 C 0.0 **** -0.24
10342 H 22.748694244965606 30.626768255154502 16.716615097919686 H 0.0 **** 0.06
10343 H 21.523395843182726 30.393371089911966 15.446670708528387 H 0.0 **** 0.06
10344 H 23.011963929603823 31.30257853372484 15.091398917581415 H 0.0 **** 0.06
10345 H 21.77306324669253 32.00647734796911 16.15814570238325 H 0.0 **** 0.06
10346 C 23.18591929287618 26.75390008776383 22.03887246857508 C 0.0 **** -0.24
10347 H 23.379265518513023 26.891885551591763 23.102474733750554 H 0.0 **** 0.06
10348 H 22.449033852367222 25.962417261657727 21.904049212481056 H 0.0 **** 0.06
10349 H 24.111807804985233 26.479365460590188 21.533308661317605 H 0.0 **** 0.06
10350 H 22.803026886544046 27.683796747794553 21.616765562945304 H 0.0 **** 0.06
10351 C 0.32759820854568034 40.64133592766784 100.55509348690768 C 0.0 **** -0.24
10352 H 0.487839723820116 39.717916871438874 101.11207058338162 H 0.0 **** 0.06
10353 H 1.1439654860808446 41.334288108303895 100.75897409783344 H 0.0 **** 0.06
10354 H -0.6165641075763801 41.09102012916311 100.86279822753853 H 0.0 **** 0.06
10355 H 0.2947910253023167 40.42112555118617 99.48874103491765 H 0.0 **** 0.06
10356 C 98.07385168067175 76.42875044733393 63.02718847230028 C 0.0 **** -0.24
10357 H 98.6468199502914 76.74670974347481 62.15569903082337 H 0.0 **** 0.06
10358 H 97.06572451335133 76.15049711208991 62.71817663696038 H 0.0 **** 0.06
10359 H 98.02128077553952 77.24836187478786 63.74479563555224 H 0.0 **** 0.06
10360 H 98.56272865928233 75.57129001255413 63.48959679220445 H 0.0 **** 0.06
10361 C 91.37804424782365 103.68096010240383 47.73690043617561 C 0.0 **** -0.24
10362 H 90.87279080427442 104.53162780532824 47.27946303641853 H 0.0 **** 0.06
10363 H 91.8878742109554 104.00489870267397 48.64440678035744 H 0.0 **** 0.06
10364 H 92.10597497495803 103.27127174291603 47.03638785368401 H 0.0 **** 0.06
10365 H 90.64417344329718 102.91435456195904 47.986802768727365 H 0.0 **** 0.06
10366 C 13.930516344207547 59.28878508978073 27.49035463851748 C 0.0 **** -0.24
10367 H 13.579669504663343 58.56175312978365 28.22294565198475 H 0.0 **** 0.06
10368 H 13.31239020060309 60.18589207059932 27.545552405356638 H 0.0 **** 0.06
10369 H 13.859732354015705 58.85936316084417 26.491571917394758 H 0.0 **** 0.06
10370 H 14.967741624681253 59.54731879306422 27.702737730473203 H 0.0 **** 0.06
10371 C 46.64934405128781 54.555627049971385 90.76387495357842 C 0.0 **** -0.24
10372 H 46.06342997332638 54.89137342636032 89.90765963235924 H 0.0 **** 0.06
10373 H 46.02984567186218 53.92381801966976 91.40172584414648 H 0.0 **** 0.06
10374 H 46.992380653857026 55.42044895802669 91.33025858056467 H 0.0 **** 0.06
10375 H 47.50942834509351 53.98486826901762 90.41307158639482 H 0.0 **** 0.06
10376 C 89.59795572644396 34.82350438905732 43.151132206788986 C 0.0 **** -0.24
10377 H 90.10427149683974 34.48305103209612 44.055021842473394 H 0.0 **** 0.06
10378 H 90.2157138450429 35.567642400077204 42.64750225020762 H 0.0 **** 0.06
10379 H 88.63815698965414 35.26660118836744 43.41858915864759 H 0.0 **** 0.06
10380 H 89.43391351602662 33.97554952322854 42.48597863966174 H 0.0 **** 0.06
10381 C 35.471881234765306 80.99548568582908 70.17750642857074 C 0.0 **** -0.24
10382 H 36.39875221421042 81.55949738208697 70.06490248074671 H 0.0 **** 0.06
10383 H 35.63491334513637 80.16392574798566 70.86397144829016 H 0.0 **** 0.06
10384 H 35.161172740779165 80.60935706425586 69.20678377811088 H 0.0 **** 0.06
10385 H 34.69586198828762 81.64829826605438 70.57478128305443 H 0.0 **** 0.06
10386 C 64.97212617197427 85.83937813678241 26.579877356473247 C 0.0 **** -0.24
10387 H 65.07367485370254 85.37303095374253 25.599864228611352 H 0.0 **** 0.06
10388 H 65.55555692542919 85.2783731161688 27.311395365988716 H 0.0 **** 0.06
10389 H 63.92267637629659 85.8402249056097 26.87500441889017 H 0.0 **** 0.06
10390 H 65.33767953495952 86.86549862808549 26.532421374895705 H 0.0 **** 0.06
10391 C 81.85211230702944 114.8900564503138 21.816479364253382 C 0.0 **** -0.24
10392 H 81.08184891774016 114.9156237472198 22.587682458985114 H 0.0 **** 0.06
10393 H 81.41833932668682 114.53212897584032 20.882379519963365 H 0.0 **** 0.06
10394 H 82.65361286848822 114.21913734052711 22.126676059078477 H 0.0 **** 0.06
10395 H 82.25358359462957 115.89284115133674 21.671082696323253 H 0.0 **** 0.06
10396 C 38.522709100989324 38.89709752938961 60.01738869416772 C 0.0 **** -0.24
10397 H 39.379407456031096 39.43711598344157 59.61491071970454 H 0.0 **** 0.06
10398 H 38.807031230108365 37.86359412120112 60.21790863671259 H 0.0 **** 0.06
10399 H 37.708417301870995 38.91636551674901 59.29338169300564 H 0.0 **** 0.06
10400 H 38.19689964763937 39.3711701990369 60.942987328154345 H 0.0 **** 0.06
10401 C 95.74480186209027 89.60175620978865 10.177194075528178 C 0.0 **** -0.24
10402 H 94.75352135228763 90.05136666860359 10.235528844655647 H 0.0 **** 0.06
10403 H 96.47592263785697 90.27666530523304 10.623173588220482 H 0.0 **** 0.06
10404 H 96.00249851564178 89.4259381873429 9.132496489357834 H 0.0 **** 0.06
10405 H 95.74613497164296 88.65535065571007 10.716372345924754 H 0.0 **** 0.06
10406 C 13.193676286834432 33.3573116440819 10.274698906425414 C 0.0 **** -0.24
10407 H 12.657936627835113 34.23296798064621 9.905516478679175 H 0.0 **** 0.06
10408 H 14.21585057320641 33.63816863057417 10.527650706135063 H 0.0 **** 0.06
10409 H 13.20752470087018 32.58836213510307 9.502519259328551 H 0.0 **** 0.06
10410 H 12.691477909361197 32.97278496617611 11.162056524112273 H 0.0 **** 0.06
10411 C 115.84713626719412 95.31831263834411 92.81386287094088 C 0.0 **** -0.24
10412 H 115.15241175493532 95.98605415033526 92.30495458294945 H 0.0 **** 0.06
10413 H 115.56934126977899 94.28252698889513 92.61408127491707 H 0.0 **** 0.06
10414 H 115.80863170389574 95.50350310497984 93.88743143260712 H 0.0 **** 0.06
10415 H 116.85874946656446 95.50000152860027 92.44952855534207 H 0.0 **** 0.06
10416 C 52.92986073428227 23.411366808506187 45.05947647382783 C 0.0 **** -0.24
10417 H 52.54236428516069 24.42970101647171 45.02120734128641 H 0.0 **** 0.06
10418 H 52.11005124118114 22.718262181011596 45.24611751916632 H 0.0 **** 0.06
10419 H 53.66323307030038 23.331798179023167 45.86181704585522 H 0.0 **** 0.06
10420 H 53.403266556219876 23.167673084355727 44.107841087791144 H 0.0 **** 0.06
10421 C 103.98755265310265 8.943388680387798 29.927444071418734 C 0.0 **** -0.24
10422 H 104.90783601387972 9.40060032918193 30.291358367633052 H 0.0 **** 0.06
10423 H 104.00926984500826 8.90015866175387 28.838208963028308 H 0.0 **** 0.06
10424 H 103.13398896321048 9.53938047296393 30.25082678413395 H 0.0 **** 0.06
10425 H 103.90034874224504 7.934067080084482 30.329616842503185 H 0.0 **** 0.06
10426 C 103.47425361877416 84.26999289939259 40.90719517867305 C 0.0 **** -0.24
10427 H 104.4087965872476 84.05471334573323 41.42506166393316 H 0.0 **** 0.06
10428 H 103.32377499002007 85.34796163847841 40.86189556569653 H 0.0 **** 0.06
10429 H 102.64681832374681 83.80872652455945 41.446276539589874 H 0.0 **** 0.06
10430 H 103.5185391772555 83.8662978013 39.895570434348585 H 0.0 **** 0.06
10431 C 26.595461219144283 59.32696746161473 98.34825987054997 C 0.0 **** -0.24
10432 H 26.360239607920334 59.64895310595553 99.36239228622976 H 0.0 **** 0.06
10433 H 27.196710732157953 60.09085853320089 97.85433066629271 H 0.0 **** 0.06
10434 H 25.671049444718733 59.1751887382858 97.79175506614384 H 0.0 **** 0.06
10435 H 27.154831157688648 58.39150713826008 98.38414685586315 H 0.0 **** 0.06
10436 C 58.898644152202905 50.825284547141564 6.093086036290291 C 0.0 **** -0.24
10437 H 59.895345950060346 51.11643492723306 5.760588558764843 H 0.0 **** 0.06
10438 H 58.15558459261615 51.461340178262674 5.611592210717749 H 0.0 **** 0.06
10439 H 58.83005801942602 50.9390611995168 7.174849576161268 H 0.0 **** 0.06
10440 H 58.715665159696215 49.78459493513142 5.824539198508839 H 0.0 **** 0.06
10441 C 110.34320984548316 29.87209195399481 108.87221699092501 C 0.0 **** -0.24
10442 H 111.02654894862442 29.15562125712612 109.32704433250137 H 0.0 **** 0.06
10443 H 109.31479433895163 29.561527668852186 109.0577485193792 H 0.0 **** 0.06
10444 H 110.52171852716583 29.912895260559957 107.79786403418802 H 0.0 **** 0.06
10445 H 110.50933298266955 30.858260579061678 109.30531753070193 H 0.0 **** 0.06
10446 C 93.02228976287041 71.20383343709997 106.75027970252441 C 0.0 **** -0.24
10447 H 94.03328638893224 70.8149370197741 106.6305052062608 H 0.0 **** 0.06
10448 H 92.80880592352567 71.34052870226071 107.81019459767244 H 0.0 **** 0.06
10449 H 92.30888312639186 70.50024809884113 106.32268161540702 H 0.0 **** 0.06
10450 H 92.9399044364145 72.16239655625208 106.23658422955457 H 0.0 **** 0.06
10451 C 87.61774803055451 69.167411580276 79.16686421330029 C 0.0 **** -0.24
10452 H 87.64103654138393 68.2851654018425 78.52766170652639 H 0.0 **** 0.06
10453 H 87.11192041427728 69.98011549708171 78.64565474004968 H 0.0 **** 0.06
10454 H 88.63689927685465 69.46751609451391 79.40801458677973 H 0.0 **** 0.06
10455 H 87.07926647148673 68.93472691499662 80.08609273065318 H 0.0 **** 0.06
10456 C 30.802060122626585 105.88625969466601 38.566527854501715 C 0.0 **** -0.24
10457 H 31.456460671366585 106.20916951102699 39.375196904758695 H 0.0 **** 0.06
10458 H 31.405292102351694 105.53681342572769 37.72810547509869 H 0.0 **** 0.06
10459 H 30.182124907458814 106.72390126774651 38.24435620416425 H 0.0 **** 0.06
10460 H 30.16285105581869 105.07574466788229 38.917283809530694 H 0.0 **** 0.06
10461 C 4.562541551277036 12.009816221817204 65.46215870843838 C 0.0 **** -0.24
10462 H 4.42059017679108 11.555469989943234 66.44261566830153 H 0.0 **** 0.06
10463 H 4.108444888126797 11.375249645641262 64.69926540447125 H 0.0 **** 0.06
10464 H 5.6279284323766205 12.11483856582521 65.26106279872914 H 0.0 **** 0.06
10465 H 4.089490869782566 12.991916498873081 65.44555511071042 H 0.0 **** 0.06
10466 C 91.9545895409708 72.12329688114573 0.1561723822813974 C 0.0 **** -0.24
10467 H 92.04956296734014 71.06525423111466 0.400134155556259 H 0.0 **** 0.06
10468 H 91.07271481460066 72.27488985574757 -0.4665154282835431 H 0.0 **** 0.06
10469 H 92.84209246230529 72.45371565592023 -0.3834474355227826 H 0.0 **** 0.06
10470 H 91.8530503399127 72.6998917780383 1.0764684006546759 H 0.0 **** 0.06
10471 C 24.847272720220474 99.25194541224329 70.69872698610708 C 0.0 **** -0.24
10472 H 24.069298362251345 99.37904795419678 69.9462235833432 H 0.0 **** 0.06
10473 H 24.731583309701932 98.2813054274896 71.18037675603898 H 0.0 **** 0.06
10474 H 24.760563168391826 100.04146099996564 71.44610923113392 H 0.0 **** 0.06
10475 H 25.825644656857833 99.3080583055179 70.2229873823966 H 0.0 **** 0.06
10476 C 63.0371277307209 94.01641350044441 69.4978218449483 C 0.0 **** -0.24
10477 H 62.196088503304736 93.41319641583308 69.83995008173736 H 0.0 **** 0.06
10478 H 63.02930247199248 94.06549593212436 68.40853295463597 H 0.0 **** 0.06
10479 H 63.969372708537435 93.56272355579064 69.83477037116444 H 0.0 **** 0.06
10480 H 62.95263303150068 95.02263524529374 69.9091247008908 H 0.0 **** 0.06
10481 C 96.64999507109997 103.71952801492074 20.733376148293225 C 0.0 **** -0.24
10482 H 96.6772071901653 102.90064282285385 21.451726378746653 H 0.0 **** 0.06
10483 H 97.36378838847592 103.52433515852198 19.93231717986107 H 0.0 **** 0.06
10484 H 96.9121348852512 104.65088026238328 21.235513851526953 H 0.0 **** 0.06
10485 H 95.64721692453884 103.80228055132255 20.314877009210285 H 0.0 **** 0.06
10486 C 112.18672202762608 12.778231397645087 115.07249169832303 C 0.0 **** -0.24
10487 H 111.45522036099717 12.19712555110435 115.63241915642091 H 0.0 **** 0.06
10488 H 112.75360683663462 13.407351023268163 115.75929276584709 H 0.0 **** 0.06
10489 H 111.6717842650333 13.405871671903839 114.34519235255262 H 0.0 **** 0.06
10490 H 112.86755954964082 12.103163070023456 114.55295667862674 H 0.0 **** 0.06
10491 C 97.31392656807105 32.02735613050794 55.50282775056064 C 0.0 **** -0.24
10492 H 97.650937012187 32.81346353552442 56.177794865822875 H 0.0 **** 0.06
10493 H 96.97694379455446 31.168735829617788 56.084601253252686 H 0.0 **** 0.06
10494 H 98.13849644381085 31.72580598833457 54.85481483594867 H 0.0 **** 0.06
10495 H 96.49080004450595 32.400129503686344 54.892625870262464 H 0.0 **** 0.06
10496 C 111.71185546605723 65.25649200484719 109.31595762380387 C 0.0 **** -0.24
10497 H 112.37154041694949 64.62488706564022 108.72019544485904 H 0.0 **** 0.06
10498 H 110.75277649333046 64.75503912023339 109.44897315914729 H 0.0 **** 0.06
10499 H 111.55817476100668 66.20508484120637 108.80234942997996 H 0.0 **** 0.06
10500 H 112.16569945306986 65.43922397617791 110.28998750839037 H 0.0 **** 0.06
10501 C 81.17563487960139 56.59053639282658 21.607707404065255 C 0.0 **** -0.24
10502 H 81.39917021649254 55.529454951815836 21.500275364668536 H 0.0 **** 0.06
10503 H 80.20876937406314 56.70998563056101 22.09916713957498 H 0.0 **** 0.06
10504 H 81.14363862217874 57.05662582789107 20.623265231247778 H 0.0 **** 0.06
10505 H 81.95060707925155 57.06624200569503 22.209481336169937 H 0.0 **** 0.06
10506 C 7.375710712991294 2.4478942984921304 77.31972057473357 C 0.0 **** -0.24
10507 H 8.36909792822048 2.0618845123560874 77.09595571133346 H 0.0 **** 0.06
10508 H 6.662331811647421 2.057607943736315 76.59387991927355 H 0.0 **** 0.06
10509 H 7.388472123081186 3.5367832320981734 77.2665922134716 H 0.0 **** 0.06
10510 H 7.08197620328623 2.137304587820978 78.32269348442173 H 0.0 **** 0.06
10511 C 106.27874187776196 91.55109874436369 110.36153846225329 C 0.0 **** -0.24
10512 H 106.62967654296011 90.52641984778705 110.24147372272495 H 0.0 **** 0.06
10513 H 105.36398284452362 91.69098927334232 109.78678979996945 H 0.0 **** 0.06
10514 H 107.04283569375791 92.2405871240818 110.00348409368284 H 0.0 **** 0.06
10515 H 106.07949157874349 91.74445586920984 111.4161914703153 H 0.0 **** 0.06
10516 C 80.25718819383752 25.803040793562246 41.0498137276021 C 0.0 **** -0.24
10517 H 79.29701844756363 26.28431202353869 41.24060345645461 H 0.0 **** 0.06
10518 H 80.15482620398336 25.105905166176626 40.218211965640535 H 0.0 **** 0.06
10519 H 80.57521029778843 25.263028094638685 41.940733302430374 H 0.0 **** 0.06
10520 H 80.99958320218843 26.56183732874507 40.7997835298022 H 0.0 **** 0.06
10521 C 76.37259565924609 32.21571249546275 29.717470053290413 C 0.0 **** -0.24
10522 H 76.75773420236749 32.01241974155113 28.717837140797826 H 0.0 **** 0.06
10523 H 77.19602218302231 32.505451525562876 30.37155009813324 H 0.0 **** 0.06
10524 H 75.89467719744624 31.31865068917108 30.11102133120744 H 0.0 **** 0.06
10525 H 75.64440986613096 33.02438603471404 29.66905493624506 H 0.0 **** 0.06
10526 C 37.07935267916842 60.74572552920961 53.232591124394276 C 0.0 **** -0.24
10527 H 36.04130069896647 60.50408803725884 53.460573475548756 H 0.0 **** 0.06
10528 H 37.725671185703106 60.338529036809234 54.010334640573205 H 0.0 **** 0.06
10529 H 37.19921174993391 61.82764485079463 53.18888910778935 H 0.0 **** 0.06
10530 H 37.35016435533143 60.31043510944403 52.270659815971385 H 0.0 **** 0.06
10531 C 16.052424815952563 30.73645374954856 97.69381967475549 C 0.0 **** -0.24
10532 H 15.494982336405066 30.847214581716287 98.62347467891746 H 0.0 **** 0.06
10533 H 15.878663791805359 29.74175715623028 97.28227575498522 H 0.0 **** 0.06
10534 H 17.11657590285366 30.866803844683545 97.89103245931541 H 0.0 **** 0.06
10535 H 15.719674872956553 31.48857581448044 96.97940078138512 H 0.0 **** 0.06
10536 C 88.84342605780864 5.276066359642442 61.678333570376594 C 0.0 **** -0.24
10537 H 87.82177643431274 5.448054560877068 61.3398713888559 H 0.0 **** 0.06
10538 H 89.49464225222046 5.145132773760125 60.81429514501531 H 0.0 **** 0.06
10539 H 88.87462522881343 4.378542243113046 62.296503981886815 H 0.0 **** 0.06
10540 H 89.18117407805312 6.131674523472569 62.262885949588224 H 0.0 **** 0.06
10541 C 63.22418281373017 62.935320875894945 7.510967123149271 C 0.0 **** -0.24
10542 H 62.49693178260462 63.28772819684875 8.241480294973655 H 0.0 **** 0.06
10543 H 62.71340221575366 62.36035732300854 6.737998367957971 H 0.0 **** 0.06
10544 H 63.9607087317318 62.3027395593537 8.006651515968372 H 0.0 **** 0.06
10545 H 63.72657181634891 63.78991135294213 7.0567788228567565 H 0.0 **** 0.06
10546 C 110.65424540710983 112.82259712215563 93.47889166636207 C 0.0 **** -0.24
10547 H 110.5769338966592 112.29532518259913 94.42923356886428 H 0.0 **** 0.06
10548 H 111.36241109088596 112.30423935890724 92.8318459254046 H 0.0 **** 0.06
10549 H 111.00038508480792 113.84087932553001 93.65503425402972 H 0.0 **** 0.06
10550 H 109.67621680032083 112.84922628154004 92.99760533700402 H 0.0 **** 0.06
10551 C 37.284621819725146 114.77434438289013 41.77554206620613 C 0.0 **** -0.24
10552 H 36.9964318373421 114.16255967668053 42.63038740951629 H 0.0 **** 0.06
10553 H 38.34251222111101 115.0270221466739 41.85025770392343 H 0.0 **** 0.06
10554 H 36.69132079537283 115.68823780932989 41.766311265237164 H 0.0 **** 0.06
10555 H 37.10785230092392 114.21735423172407 40.85529640540625 H 0.0 **** 0.06
10556 C 89.89092134843685 51.00543941779165 66.82516811321797 C 0.0 **** -0.24
10557 H 90.68005427524821 50.578384333194776 67.44476942407732 H 0.0 **** 0.06
10558 H 90.23624361972423 51.94556785086263 66.39508020330223 H 0.0 **** 0.06
10559 H 89.00785140274786 51.18720796413993 67.43693290804538 H 0.0 **** 0.06
10560 H 89.64160193479609 50.3092927477137 66.02406373599017 H 0.0 **** 0.06
10561 C 26.524846640380588 47.154182668233716 28.23100327119579 C 0.0 **** -0.24
10562 H 26.925196930299734 46.256078440577255 28.700727618244628 H 0.0 **** 0.06
10563 H 25.478792320940613 46.99119787348907 27.967900666820356 H 0.0 **** 0.06
10564 H 27.09567802248401 47.37877737812596 27.33033337094116 H 0.0 **** 0.06
10565 H 26.598471056499534 47.991322980571155 28.925208643825385 H 0.0 **** 0.06
10566 C 67.4726962668093 87.29290352872886 10.006555816423031 C 0.0 **** -0.24
10567 H 67.54610838359051 86.86788047489563 11.006819047412662 H 0.0 **** 0.06
10568 H 67.09215909590083 86.53865985146871 9.317758681728193 H 0.0 **** 0.06
10569 H 68.45931361780433 87.62086076188359 9.677601607808128 H 0.0 **** 0.06
10570 H 66.79346673861068 88.1462897161787 10.02214162272233 H 0.0 **** 0.06
10571 C 22.476388934251556 81.57798135314894 85.82778952650092 C 0.0 **** -0.24
10572 H 21.409648785292795 81.55223936029844 85.60765479716919 H 0.0 **** 0.06
10573 H 22.681026030612568 82.37745221434983 86.53969860801699 H 0.0 **** 0.06
10574 H 23.033269909313383 81.75922128717804 84.90800625358754 H 0.0 **** 0.06
10575 H 22.78161101178734 80.62301255076926 86.25579844722996 H 0.0 **** 0.06
10576 C 58.529110503148104 45.39511230527751 36.836676903448364 C 0.0 **** -0.24
10577 H 58.74622270018605 44.747845871067796 37.68681457011546 H 0.0 **** 0.06
10578 H 58.57508003798816 44.81413216484347 35.91563541426319 H 0.0 **** 0.06
10579 H 59.26418180367489 46.19923327860525 36.796975252737525 H 0.0 **** 0.06
10580 H 57.531472074836245 45.82014179583524 36.94950014763897 H 0.0 **** 0.06
10581 C 25.83097145819181 112.54474871530022 71.93807289796553 C 0.0 **** -0.24
10582 H 24.884784912001578 112.14281333330811 72.29983732330766 H 0.0 **** 0.06
10583 H 26.237673540385714 113.23736621951336 72.67549747705218 H 0.0 **** 0.06
10584 H 25.665525391706296 113.07093443436234 70.99797038306727 H 0.0 **** 0.06
10585 H 26.535079456525295 111.72840350961435 71.77876202091477 H 0.0 **** 0.06
10586 C 26.820575090543244 14.980348569692097 6.492204601184156 C 0.0 **** -0.24
10587 H 26.482160977074756 14.784951657183711 7.510324709544982 H 0.0 **** 0.06
10588 H 27.546669930494005 14.22149460905996 6.199630616739626 H 0.0 **** 0.06
10589 H 27.285320233483418 15.965361752389015 6.447332062937042 H 0.0 **** 0.06
10590 H 25.96821690979688 14.949459648427904 5.814690122404313 H 0.0 **** 0.06
10591 C 70.20329244514267 15.40771985986271 60.55559077544868 C 0.0 **** -0.24
10592 H 69.50409920271983 15.397543633912164 61.39274422903898 H 0.0 **** 0.06
10593 H 69.89178440508579 14.673830501691782 59.81272088775147 H 0.0 **** 0.06
10594 H 71.2029753532077 15.161850737813097 60.91478299977007 H 0.0 **** 0.06
10595 H 70.21331321981575 16.400262302186547 60.1035999349086 H 0.0 **** 0.06
10596 C 93.1249924294683 109.19303116154958 78.74379044506247 C 0.0 **** -0.24
10597 H 92.95838259228398 110.11610566310935 79.29884735215171 H 0.0 **** 0.06
10598 H 92.86170273819295 108.33969849046655 79.37006397702494 H 0.0 **** 0.06
10599 H 94.17597141791111 109.12546379840427 78.46008204320952 H 0.0 **** 0.06
10600 H 92.50588492858276 109.1905830206348 77.84718662414676 H 0.0 **** 0.06
10601 C 21.527542532394648 28.420633548367476 84.63283779460363 C 0.0 **** -0.24
10602 H 20.449893325790015 28.58264551048326 84.59135365713166 H 0.0 **** 0.06
10603 H 21.730373403941115 27.352238188306032 84.72434577262959 H 0.0 **** 0.06
10604 H 21.939828179617507 28.944408388031817 85.4952628732164 H 0.0 **** 0.06
10605 H 21.987467473667806 28.80108661940332 83.72113333157932 H 0.0 **** 0.06
10606 C 105.51561020115548 35.532199400423586 96.22625309910609 C 0.0 **** -0.24
10607 H 106.26980781488896 35.10449273510685 95.56536010767456 H 0.0 **** 0.06
10608 H 105.76709704906344 35.30106722576045 97.26147522575911 H 0.0 **** 0.06
10609 H 104.54016018499917 35.10875340788425 95.98578617475204 H 0.0 **** 0.06
10610 H 105.48538489906059 36.61361182124903 96.09190214382954 H 0.0 **** 0.06
10611 C 96.04229825030268 84.11559228868538 9.178290751106545 C 0.0 **** -0.24
10612 H 96.05608668849129 83.25661705749354 8.50702328190107 H 0.0 **** 0.06
10613 H 95.01025279634968 84.41205130351875 9.365797527403231 H 0.0 **** 0.06
10614 H 96.58244488753431 84.94377083527053 8.7200687185331 H 0.0 **** 0.06
10615 H 96.5201543932966 83.84749673371925 10.120150501671276 H 0.0 **** 0.06
10616 C 28.058955499507363 2.609269397784857 55.39716056534388 C 0.0 **** -0.24
10617 H 27.118869581659254 2.0583079305572056 55.41190677498568 H 0.0 **** 0.06
10618 H 28.338439334047592 2.876892341097644 56.417034773983744 H 0.0 **** 0.06
10619 H 27.939838798642086 3.515593707354057 54.803944771280214 H 0.0 **** 0.06
10620 H 28.83848900729194 1.9872030264117342 54.95801883555845 H 0.0 **** 0.06
10621 C 89.83703649276632 11.863363699582553 38.94608219989391 C 0.0 **** -0.24
10622 H 89.50328780606331 10.840482203347037 39.12391886943914 H 0.0 **** 0.06
10623 H 89.01404399905849 12.551710835897438 39.14133125931613 H 0.0 **** 0.06
10624 H 90.15991421811285 11.965449510415926 37.9105374376864 H 0.0 **** 0.06
10625 H 90.66968361010282 12.093539324253765 39.611253268015844 H 0.0 **** 0.06
10626 C 17.969642503252203 0.8969797111257947 88.89557588790257 C 0.0 **** -0.24
10627 H 18.406933366071144 1.7254570287060744 88.3369671901616 H 0.0 **** 0.06
10628 H 17.902243418784565 0.02012812744712278 88.25096339565039 H 0.0 **** 0.06
10629 H 16.97236025390339 1.1747800223228637 89.23646098225197 H 0.0 **** 0.06
10630 H 18.597776159061823 0.6680286840473286 89.75680647554519 H 0.0 **** 0.06
10631 C 51.91768375283476 18.669197130237052 69.91391333713807 C 0.0 **** -0.24
10632 H 51.83859419101069 19.502440333094683 69.21611384984442 H 0.0 **** 0.06
10633 H 52.491822690147785 18.97981680212021 70.78706651829981 H 0.0 **** 0.06
10634 H 52.42030946048786 17.833406721971585 69.42698895357054 H 0.0 **** 0.06
10635 H 50.919375638414806 18.36131896840962 70.22673367912103 H 0.0 **** 0.06
10636 C 51.690322982442765 18.83884329481854 46.29328917175491 C 0.0 **** -0.24
10637 H 51.73344437571701 19.15321951447118 47.33633601757208 H 0.0 **** 0.06
10638 H 51.63558575401541 17.751586512655415 46.2450186559804 H 0.0 **** 0.06
10639 H 52.58549396957405 19.181471008139376 45.774195044836574 H 0.0 **** 0.06
10640 H 50.80831572079475 19.26910505777344 45.82054032533449 H 0.0 **** 0.06
10641 C 74.5059617488603 105.23368836532177 79.95157373773542 C 0.0 **** -0.24
10642 H 75.28710226618125 105.99352353386053 79.93211732615912 H 0.0 **** 0.06
10643 H 73.959544757711 105.24970103286569 79.00849493541467 H 0.0 **** 0.06
10644 H 73.82071906360662 105.4394526086214 80.77338700452938 H 0.0 **** 0.06
10645 H 74.957828133324 104.25172967264325 80.09255055091691 H 0.0 **** 0.06
10646 C 75.975188189079 111.80031288286526 11.799513796553413 C 0.0 **** -0.24
10647 H 77.0623259298124 111.79103126925375 11.87675969068863 H 0.0 **** 0.06
10648 H 75.68618680123029 111.80701377713284 10.749128257688767 H 0.0 **** 0.06
10649 H 75.58435343787608 112.69137516077194 12.290546131829899 H 0.0 **** 0.06
10650 H 75.56963422556998 110.91205945268308 12.282997333665037 H 0.0 **** 0.06
10651 C 69.80703309806256 60.26040356369113 83.49579392369651 C 0.0 **** -0.24
10652 H 70.21396140251608 59.51013402500284 84.17343210513349 H 0.0 **** 0.06
10653 H 69.63075558805383 59.80978990493256 82.51905899234299 H 0.0 **** 0.06
10654 H 70.51611620546916 61.08176756543753 83.39616543612641 H 0.0 **** 0.06
10655 H 68.86608482040043 60.63881614657481 83.8970293825329 H 0.0 **** 0.06
10656 C 33.781085649415864 70.31083207518333 21.809610639327985 C 0.0 **** -0.24
10657 H 32.96954389161354 69.58533139790012 21.746054780193333 H 0.0 **** 0.06
10658 H 33.73720518627097 70.98047210019627 20.950524315761015 H 0.0 **** 0.06
10659 H 34.73737342333653 69.78689110255658 21.81309726081446 H 0.0 **** 0.06
10660 H 33.68072990559155 70.8895151820438 22.727188468156896 H 0.0 **** 0.06
10661 C 63.646956909435886 62.07640304681462 100.88210468709046 C 0.0 **** -0.24
10662 H 64.28268649338193 62.859476855423395 100.47014497832427 H 0.0 **** 0.06
10663 H 62.78770891142953 62.52941458836665 101.37785365884716 H 0.0 **** 0.06
10664 H 64.21562351736684 61.48992539169342 101.60421260255872 H 0.0 **** 0.06
10665 H 63.3020632281567 61.42672582736003 100.07717210520997 H 0.0 **** 0.06
10666 C 30.686576832790195 69.79156060666116 2.3606928451514477 C 0.0 **** -0.24
10667 H 30.519468743283483 68.714766772563 2.3708636813707074 H 0.0 **** 0.06
10668 H 31.364327857490025 70.06144245158782 3.171864226947747 H 0.0 **** 0.06
10669 H 29.73616948633446 70.30848991605603 2.4939164419962054 H 0.0 **** 0.06
10670 H 31.128353094261797 70.08151425910353 1.4071026841548502 H 0.0 **** 0.06
10671 C 110.17128292618759 49.58732065696029 47.37264954675956 C 0.0 **** -0.24
10672 H 109.39445015669324 50.07100301035905 47.965745529446494 H 0.0 **** 0.06
10673 H 110.25152490463398 48.540221148556384 47.662996485425225 H 0.0 **** 0.06
10674 H 111.1242360855337 50.08704970337834 47.54530725785422 H 0.0 **** 0.06
10675 H 109.91398867668855 49.65363447359647 46.315436364795836 H 0.0 **** 0.06
10676 C 27.01269044046728 36.04324156084391 82.52098760465981 C 0.0 **** -0.24
10677 H 26.95865410065491 36.566031493591254 81.5660555046756 H 0.0 **** 0.06
10678 H 27.780460497413884 35.270622186964374 82.46811928078222 H 0.0 **** 0.06
10679 H 26.049655289323596 35.58349494149917 82.73837845496371 H 0.0 **** 0.06
10680 H 27.264021268060105 36.75159619653772 83.30955593001579 H 0.0 **** 0.06
10681 C 42.53472879428534 68.79069636507319 97.24069772240414 C 0.0 **** -0.24
10682 H 41.54824491281198 68.7404601775284 97.70291790857037 H 0.0 **** 0.06
10683 H 42.61850105415914 69.71161509173282 96.66305726340258 H 0.0 **** 0.06
10684 H 42.671103836398686 67.9338331540796 96.58037970722195 H 0.0 **** 0.06
10685 H 43.30037916820447 68.77750147691006 98.01680917730151 H 0.0 **** 0.06
10686 C 43.55218334427167 61.30860339434517 26.89062269996606 C 0.0 **** -0.24
10687 H 42.594853203143515 61.748270881774204 26.609131833328377 H 0.0 **** 0.06
10688 H 43.65678821575648 61.329145508942204 27.974486752374958 H 0.0 **** 0.06
10689 H 44.36177329352256 61.880066769933265 26.435977439325086 H 0.0 **** 0.06
10690 H 43.59437322376604 60.27731891175969 26.539295329157255 H 0.0 **** 0.06
10691 C 96.20765257005704 34.2267923194197 80.37435280260257 C 0.0 **** -0.24
10692 H 97.29482362703767 34.161280895416894 80.43214539648659 H 0.0 **** 0.06
10693 H 95.76382485998168 33.514967480395626 81.07009046521898 H 0.0 **** 0.06
10694 H 95.88356032820639 33.99540707817039 79.36006753690123 H 0.0 **** 0.06
10695 H 95.89052242536908 35.236733062618555 80.63523160495691 H 0.0 **** 0.06
10696 C 78.82390032619008 15.93290943861793 31.593032895543445 C 0.0 **** -0.24
10697 H 78.71216729925732 15.567198778203121 30.571790486479244 H 0.0 **** 0.06
10698 H 79.56427676067244 16.732305879152566 31.612438819681813 H 0.0 **** 0.06
10699 H 79.15349910204071 15.117039955879733 32.236727868133585 H 0.0 **** 0.06
10700 H 77.86712585101264 16.313236773336342 31.9490767188139 H 0.0 **** 0.06
10701 C 3.2424913613475894 83.25580956797216 60.067981373042784 C 0.0 **** -0.24
10702 H 3.5864513025355222 84.12140211075433 59.503200376705934 H 0.0 **** 0.06
10703 H 3.263107222211829 82.37263364190511 59.42853716680736 H 0.0 **** 0.06
10704 H 2.223698836115176 83.42968274966142 60.414425403913356 H 0.0 **** 0.06
10705 H 3.8962004241406163 83.09886789016679 60.92632591943374 H 0.0 **** 0.06
10706 C 32.14909297616413 34.508518254605846 62.51110253643799 C 0.0 **** -0.24
10707 H 33.11827659191067 35.007104835771415 62.54513412215357 H 0.0 **** 0.06
10708 H 32.12304601518696 33.713255066626004 63.256154600885054 H 0.0 **** 0.06
10709 H 31.99547681214034 34.0832041854854 61.51878069707823 H 0.0 **** 0.06
10710 H 31.361729240308307 35.23179511499674 62.72241856369811 H 0.0 **** 0.06
10711 C 47.791523317488156 110.39603090695707 21.072966361677405 C 0.0 **** -0.24
10712 H 48.72857167221662 110.61168573606469 21.586275164320618 H 0.0 **** 0.06
10713 H 47.01139059422724 111.05969324768924 21.448367337314448 H 0.0 **** 0.06
10714 H 47.507479126592784 109.36073840468065 21.25815224863872 H 0.0 **** 0.06
10715 H 47.919490841461766 110.55262393079911 20.003060127782636 H 0.0 **** 0.06
10716 C 78.14430940552671 13.193900620403014 87.49101735975961 C 0.0 **** -0.24
10717 H 78.36730095790318 12.279207015596455 88.04163248330076 H 0.0 **** 0.06
10718 H 77.5298445316966 13.848453173406085 88.10858305505218 H 0.0 **** 0.06
10719 H 77.60622035175112 12.94402164046582 86.57655673935932 H 0.0 **** 0.06
10720 H 79.07605108657191 13.700961635269806 87.23800117934488 H 0.0 **** 0.06
10721 C 62.937424149988516 18.54296675011912 8.507153155448378 C 0.0 **** -0.24
10722 H 61.91352273509918 18.172705317879178 8.560827474298787 H 0.0 **** 0.06
10723 H 63.321220812598085 18.40529024789751 7.496336727472475 H 0.0 **** 0.06
10724 H 63.56020795268279 17.99168028219441 9.211411701611024 H 0.0 **** 0.06
10725 H 62.95352750616172 19.603505056247485 8.761375153149771 H 0.0 **** 0.06
10726 C 89.56197579938902 21.34915484843964 69.38599260418565 C 0.0 **** -0.24
10727 H 89.77859868003799 21.761062869395943 68.40082926276348 H 0.0 **** 0.06
10728 H 90.432294987711 21.47053778095409 70.03062600988042 H 0.0 **** 0.06
10729 H 89.32367126925828 20.289214229596666 69.29183078615294 H 0.0 **** 0.06
10730 H 88.71119241949117 21.87463863271512 69.82049349517811 H 0.0 **** 0.06
10731 C 54.339008338723886 93.13138908028448 27.01791126827976 C 0.0 **** -0.24
10732 H 54.04643151780505 93.26257357306463 25.976545367853532 H 0.0 **** 0.06
10733 H 54.36308307451114 94.10158129256611 27.514206579370807 H 0.0 **** 0.06
10734 H 55.327546100491304 92.67483996120134 27.062155149977173 H 0.0 **** 0.06
10735 H 53.61779196539993 92.48442312480306 27.518554475582278 H 0.0 **** 0.06
10736 C 94.96142594114008 102.6834922245489 54.66017651029625 C 0.0 **** -0.24
10737 H 94.10719301886634 103.30856687731739 54.91822357107765 H 0.0 **** 0.06
10738 H 95.48544456693338 102.39031420224376 55.56982681457475 H 0.0 **** 0.06
10739 H 95.63897391617688 103.24340191792226 54.01522422102954 H 0.0 **** 0.06
10740 H 94.61528359195445 101.79227411970845 54.136946824900576 H 0.0 **** 0.06
10741 C 66.68015652171039 105.78018026050476 49.98398212155891 C 0.0 **** -0.24
10742 H 65.6379800379568 105.92068955753764 49.69617853822943 H 0.0 **** 0.06
10743 H 66.80222686133689 104.79511848739871 50.43490530415528 H 0.0 **** 0.06
10744 H 66.9659084666757 106.5479124883181 50.703136218269066 H 0.0 **** 0.06
10745 H 67.31393953493328 105.85637971386002 49.09963752128172 H 0.0 **** 0.06
10746 C 52.79688637565073 60.82575603598576 51.42080617119569 C 0.0 **** -0.24
10747 H 52.71989273552495 61.65680297658349 50.71995633248693 H 0.0 **** 0.06
10748 H 52.75342961069188 61.2061043801333 52.44177201173905 H 0.0 **** 0.06
10749 H 53.74416444486266 60.30788304366399 51.266402642954546 H 0.0 **** 0.06
10750 H 51.97282752595544 60.13271085691133 51.25476737814343 H 0.0 **** 0.06
10751 C 94.58674534592694 25.55442941483716 64.63359973898598 C 0.0 **** -0.24
10752 H 94.02746414338264 26.42683100302338 64.29604597494057 H 0.0 **** 0.06
10753 H 95.43339795769805 25.877203910009342 65.23938066234133 H 0.0 **** 0.06
10754 H 94.94823169605587 24.998681584952635 63.768275791334744 H 0.0 **** 0.06
10755 H 93.93595632797786 24.9142521785748 65.22985417981131 H 0.0 **** 0.06
10756 C 60.46891298659071 0.4349417067066099 5.53009774992961 C 0.0 **** -0.24
10757 H 59.498754533171294 0.4362202574369576 6.026886929918703 H 0.0 **** 0.06
10758 H 60.63979244869823 -0.5379282315848002 5.069410398573098 H 0.0 **** 0.06
10759 H 61.25132834295472 0.6335809478050294 6.26139872845647 H 0.0 **** 0.06
10760 H 60.48462857185169 1.2083798364719769 4.7614924567069465 H 0.0 **** 0.06
10761 C 105.91317602366401 112.99658220542423 90.72553602172601 C 0.0 **** -0.24
10762 H 105.82092426143245 111.92190306866483 90.8833331488488 H 0.0 **** 0.06
10763 H 105.21352617545439 113.52044089130855 91.37687596810363 H 0.0 **** 0.06
10764 H 105.68813792171159 113.23217409454178 89.68565004970455 H 0.0 **** 0.06
10765 H 106.93111511309404 113.31177496007473 90.95628942050743 H 0.0 **** 0.06
10766 C 48.67307668085999 4.6829791368623574 31.424292524818952 C 0.0 **** -0.24
10767 H 48.061919690011024 3.8017665703461887 31.228333041872986 H 0.0 **** 0.06
10768 H 48.49061439603774 5.430127912578342 30.650763678409476 H 0.0 **** 0.06
10769 H 49.72642930162965 4.4023931201181625 31.4176359280641 H 0.0 **** 0.06
10770 H 48.412498155922236 5.095677042626917 32.39809729727972 H 0.0 **** 0.06
10771 C 72.69844111971645 103.98782711025768 84.52045097451247 C 0.0 **** -0.24
10772 H 73.67884911417832 103.51265915059838 84.55402371870592 H 0.0 **** 0.06
10773 H 72.51007042828212 104.36252343870981 83.51401779879097 H 0.0 **** 0.06
10774 H 72.67350929362749 104.81769638686205 85.22769705720125 H 0.0 **** 0.06
10775 H 71.93260078418348 103.25993246891176 84.78713334973526 H 0.0 **** 0.06
10776 C 112.02563691801464 41.447458809959755 87.94624325622271 C 0.0 **** -0.24
10777 H 112.6148225154565 41.40764953264801 87.02940947853193 H 0.0 **** 0.06
10778 H 111.10003574654678 41.993338148568 87.75967462452846 H 0.0 **** 0.06
10779 H 112.59744501184576 41.95636313250719 88.72327449159326 H 0.0 **** 0.06
10780 H 111.79195907428792 40.43482129025267 88.27184017981747 H 0.0 **** 0.06
10781 C 111.09614851877049 30.103218732026704 7.235080360212322 C 0.0 **** -0.24
10782 H 111.72923756143246 29.358660933375717 6.751360852267268 H 0.0 **** 0.06
10783 H 110.10254629374434 29.684777519856937 7.397985757679905 H 0.0 **** 0.06
10784 H 111.02018157810342 30.984827865391082 6.597962662477627 H 0.0 **** 0.06
10785 H 111.53370398371635 30.38374808446548 8.193333494093494 H 0.0 **** 0.06
10786 C 15.549089141847247 9.823326498471545 10.897211859075497 C 0.0 **** -0.24
10787 H 15.2374582359367 8.933930343590504 10.350489669900895 H 0.0 **** 0.06
10788 H 15.114187524731346 9.806062229498437 11.896425084090666 H 0.0 **** 0.06
10789 H 15.208823379792076 10.713683942041342 10.367440730246699 H 0.0 **** 0.06
10790 H 16.63642302300502 9.840208666801715 10.973877350637792 H 0.0 **** 0.06
10791 C 68.50419954930106 83.92699279422924 64.76340372282385 C 0.0 **** -0.24
10792 H 68.3250586979928 84.79162622830538 64.12528299387213 H 0.0 **** 0.06
10793 H 67.62583078792676 83.74489264319189 65.38306285525682 H 0.0 **** 0.06
10794 H 69.36595101266232 84.11867875547118 65.40168217723652 H 0.0 **** 0.06
10795 H 68.69829732496368 83.05181489717674 64.14301732860477 H 0.0 **** 0.06
10796 C 49.073449137340006 24.89866498177406 96.62824550998073 C 0.0 **** -0.24
10797 H 49.69223144124028 24.813270319980006 97.52151913397796 H 0.0 **** 0.06
10798 H 48.41418013545126 24.03279785430324 96.55986343622004 H 0.0 **** 0.06
10799 H 49.712120553459854 24.94183190788675 95.74658971841748 H 0.0 **** 0.06
10800 H 48.47479792130372 25.808093073092223 96.68801066914116 H 0.0 **** 0.06
10801 C 49.86344172232157 91.40311789460863 38.07194672469285 C 0.0 **** -0.24
10802 H 50.063415288741055 90.35182760771262 38.278707095410766 H 0.0 **** 0.06
10803 H 50.07914040447355 91.61489727306113 37.02447350094741 H 0.0 **** 0.06
10804 H 50.49528431788201 92.02556132377481 38.706344647132994 H 0.0 **** 0.06
10805 H 48.81506386388139 91.62129979897787 38.278145997412906 H 0.0 **** 0.06
10806 C 55.57012244213508 112.67076656097407 115.41822475136149 C 0.0 **** -0.24
10807 H 54.63027778123043 113.00483734705959 115.85808187984517 H 0.0 **** 0.06
10808 H 55.37402942557235 112.20139572296817 114.45448356801147 H 0.0 **** 0.06
10809 H 56.04574727180044 111.94995946431222 116.08376719218413 H 0.0 **** 0.06
10810 H 56.23066145408254 113.52621361287919 115.27779650193415 H 0.0 **** 0.06
10811 C 12.971911930118836 107.96608242597895 57.1564603633464 C 0.0 **** -0.24
10812 H 13.767589205449298 108.20829318393976 57.861057541439166 H 0.0 **** 0.06
10813 H 12.302568254603017 107.23065096183075 57.60195235716998 H 0.0 **** 0.06
10814 H 13.407128096113809 107.55743593740095 56.24394814636368 H 0.0 **** 0.06
10815 H 12.41099490968233 108.86981145737684 56.91661763935865 H 0.0 **** 0.06
10816 C 54.48241884733097 6.797460737161373 92.95381590014654 C 0.0 **** -0.24
10817 H 55.454852904586765 7.260987194578917 93.12089910904433 H 0.0 **** 0.06
10818 H 53.69377596143191 7.495183753234144 93.23937792775888 H 0.0 **** 0.06
10819 H 54.40346571600898 5.893174076631112 93.55680309902385 H 0.0 **** 0.06
10820 H 54.37760371151394 6.54272602136885 91.8992010106212 H 0.0 **** 0.06
10821 C 80.8484875220412 115.36363932481558 59.68052055182541 C 0.0 **** -0.24
10822 H 80.90620318914114 116.0968917164814 60.48534750345526 H 0.0 **** 0.06
10823 H 80.39873166122696 115.82496788781262 58.80112803668047 H 0.0 **** 0.06
10824 H 80.23752323280343 114.51951315233512 60.00162839004189 H 0.0 **** 0.06
10825 H 81.85085728586269 115.01455335269529 59.435908000371654 H 0.0 **** 0.06
10826 C 94.84922043575062 51.706330988340085 49.91050596932611 C 0.0 **** -0.24
10827 H 94.68021603668626 52.49017987912843 50.6477107507915 H 0.0 **** 0.06
10828 H 95.63723828168668 51.03987974252993 50.261390813590324 H 0.0 **** 0.06
10829 H 95.1483230543995 52.156787135175904 48.96387433075295 H 0.0 **** 0.06
10830 H 93.92994059606679 51.13814183287303 49.76780970453434 H 0.0 **** 0.06
10831 C 13.555192376506454 61.23555492542302 88.84858145725076 C 0.0 **** -0.24
10832 H 13.641249641672118 61.83330941195969 89.7556394703528 H 0.0 **** 0.06
10833 H 14.165813271489355 60.33789395362042 88.94457855688944 H 0.0 **** 0.06
10834 H 13.898058638570888 61.819256425577564 87.99472444601804 H 0.0 **** 0.06
10835 H 12.512700087022267 60.952109031030844 88.69894895363737 H 0.0 **** 0.06
10836 C 11.362398373659119 13.907559411274548 21.908045025845585 C 0.0 **** -0.24
10837 H 12.09048958595396 13.658718857036746 21.136148591321184 H 0.0 **** 0.06
10838 H 11.181111400941148 14.98273184969834 21.903939008629386 H 0.0 **** 0.06
10839 H 11.749940733182953 13.608146688930901 22.88194209810078 H 0.0 **** 0.06
10840 H 10.429360374861744 13.380113450570306 21.710251211728238 H 0.0 **** 0.06
10841 C 62.31407151965459 4.51609700370625 84.8809049055908 C 0.0 **** -0.24
10842 H 63.22108384098533 3.9217436357626525 84.7709491314464 H 0.0 **** 0.06
10843 H 62.546714136982814 5.568011433129357 84.71705141818506 H 0.0 **** 0.06
10844 H 61.91265872937282 4.3842543891658465 85.88605707972698 H 0.0 **** 0.06
10845 H 61.57558596781939 4.18852674681483 84.14833242439462 H 0.0 **** 0.06
10846 C 87.34793079696135 51.358811055057295 100.93676269247038 C 0.0 **** -0.24
10847 H 88.35572271123141 51.30224586247843 101.34821061434451 H 0.0 **** 0.06
10848 H 86.90987741760858 52.32781559752751 101.18010833131277 H 0.0 **** 0.06
10849 H 86.73551794729707 50.56506911492951 101.36449366402681 H 0.0 **** 0.06
10850 H 87.39129614087756 51.24102099494145 99.85340191320762 H 0.0 **** 0.06
10851 C 21.10310616980039 93.08310946455964 78.6706205088675 C 0.0 **** -0.24
10852 H 21.221455910651592 93.50441237645327 77.67214077948591 H 0.0 **** 0.06
10853 H 22.017170035931713 93.2431843481429 79.24310359005955 H 0.0 **** 0.06
10854 H 20.90496215924262 92.01395429977777 78.59159034315562 H 0.0 **** 0.06
10855 H 20.268089593226517 93.57120385994108 79.17411706602266 H 0.0 **** 0.06
10856 C 9.115184689451581 53.52269204575302 51.651586781304445 C 0.0 **** -0.24
10857 H 8.421308277906817 54.313467501795884 51.36748253317134 H 0.0 **** 0.06
10858 H 9.917228260642872 53.460946590327836 50.91659826654217 H 0.0 **** 0.06
10859 H 8.584541584905082 52.57112651303234 51.691605756756076 H 0.0 **** 0.06
10860 H 9.536581024934065 53.74423373072068 52.63262195921143 H 0.0 **** 0.06
10861 C 100.23907480889233 57.23213939699127 105.87045967890998 C 0.0 **** -0.24
10862 H 100.8690619327102 56.36070177166772 105.69681017940684 H 0.0 **** 0.06
10863 H 99.5230073099309 57.33042197168794 105.0541775817344 H 0.0 **** 0.06
10864 H 100.86078518816905 58.12684902484352 105.9180465256469 H 0.0 **** 0.06
10865 H 99.70232582555184 57.11156598814517 106.81191822078819 H 0.0 **** 0.06
10866 C 79.55035199449833 68.05482219715384 46.84738430474664 C 0.0 **** -0.24
10867 H 80.48587401982593 68.594185585773 46.697243501574405 H 0.0 **** 0.06
10868 H 78.73716067937323 68.59910661038651 46.36727607476338 H 0.0 **** 0.06
10869 H 79.34922571854258 67.96877002075843 47.91532850409252 H 0.0 **** 0.06
10870 H 79.63140749839187 67.05989370889444 46.41057220026525 H 0.0 **** 0.06
10871 C 60.531760721206865 100.2597464328777 16.584968521260635 C 0.0 **** -0.24
10872 H 61.42967981829986 100.63413716957878 16.091664841353975 H 0.0 **** 0.06
10873 H 60.11461026546171 99.43756355816929 16.002222902137902 H 0.0 **** 0.06
10874 H 59.7972941414549 101.06253599762032 16.659563361747985 H 0.0 **** 0.06
10875 H 60.78724789575787 99.9062088183633 17.58300705402081 H 0.0 **** 0.06
10876 C 11.392781426487403 2.615011590024551 75.95490036083774 C 0.0 **** -0.24
10877 H 11.782930375336605 1.643130810125058 75.65354994715891 H 0.0 **** 0.06
10878 H 10.312084970362946 2.548130771173703 76.08489554028212 H 0.0 **** 0.06
10879 H 11.62253325443288 3.3524267464842694 75.18588961336553 H 0.0 **** 0.06
10880 H 11.854385182904906 2.9158303581125438 76.89500437266446 H 0.0 **** 0.06
10881 C 5.296880240037652 83.8170789503053 107.06052539612831 C 0.0 **** -0.24
10882 H 6.155239901777179 83.45980152703243 106.4911247297029 H 0.0 **** 0.06
10883 H 4.5429589213898804 84.20536000402745 106.37509555123705 H 0.0 **** 0.06
10884 H 5.615200839472061 84.61010130497158 107.73780609249974 H 0.0 **** 0.06
10885 H 4.875347012363182 82.99416856878491 107.63757199908379 H 0.0 **** 0.06
10886 C 84.2403584923588 66.70044313478253 19.88645871316982 C 0.0 **** -0.24
10887 H 84.5897941596981 67.54418484881714 20.482293623986727 H 0.0 **** 0.06
10888 H 83.5331800641121 66.11174690040662 20.470703493144196 H 0.0 **** 0.06
10889 H 85.09059918566177 66.07715690003144 19.60886799466793 H 0.0 **** 0.06
10890 H 83.75005195097395 67.06992205154677 18.985884245968837 H 0.0 **** 0.06
10891 C 60.053123549169825 4.331625083469902 96.28223054936758 C 0.0 **** -0.24
10892 H 59.395275131858924 4.552279868975631 97.12285857646899 H 0.0 **** 0.06
10893 H 59.640975724546465 4.770610256409412 95.3737330350204 H 0.0 **** 0.06
10894 H 60.13740073729102 3.251814339443186 96.15906125128231 H 0.0 **** 0.06
10895 H 61.0405141351397 4.753424116714655 96.47401440581503 H 0.0 **** 0.06
10896 C 41.67650218595699 73.48824986413874 106.02516993505012 C 0.0 **** -0.24
10897 H 41.04793963147364 72.97818614150697 105.29608791294065 H 0.0 **** 0.06
10898 H 42.67856086353507 73.61442708805652 105.61485872906061 H 0.0 **** 0.06
10899 H 41.72829873365947 72.89556913217712 106.93807692872063 H 0.0 **** 0.06
10900 H 41.250955361917846 74.46609405635368 106.25110400185885 H 0.0 **** 0.06
10901 C 71.83631852647639 46.33638035867946 31.476234246428817 C 0.0 **** -0.24
10902 H 71.81516940452674 47.20790227721929 32.12979048668467 H 0.0 **** 0.06
10903 H 70.84021039588895 46.16248076146251 31.06954386893335 H 0.0 **** 0.06
10904 H 72.15457047236185 45.4627881200416 32.045715493574704 H 0.0 **** 0.06
10905 H 72.53770693540574 46.51236025747994 30.659320510474288 H 0.0 **** 0.06
10906 C 102.91096022920892 36.06409991423436 52.362279413648764 C 0.0 **** -0.24
10907 H 103.1356114859497 37.11330608002558 52.16666532446101 H 0.0 **** 0.06
10908 H 103.82455939272178 35.546077267370265 52.656819316550724 H 0.0 **** 0.06
10909 H 102.50690951133167 35.60480903237635 51.45945688120929 H 0.0 **** 0.06
10910 H 102.17823654337924 35.994041077597075 53.16549871647388 H 0.0 **** 0.06
10911 C 65.20659808139749 3.2578350601497306 12.585788581327733 C 0.0 **** -0.24
10912 H 65.01318874656772 3.0874387217523065 11.526094500660534 H 0.0 **** 0.06
10913 H 65.73244708139484 4.205246682782672 12.710879326436213 H 0.0 **** 0.06
10914 H 65.82116553693794 2.44707824028346 12.977602057992982 H 0.0 **** 0.06
10915 H 64.26116391530465 3.291855464705989 13.126721456894842 H 0.0 **** 0.06
10916 C 89.87211567002163 91.96520197111741 33.846682022377585 C 0.0 **** -0.24
10917 H 89.36785887178502 91.8044788157739 32.893842740225686 H 0.0 **** 0.06
10918 H 89.76557371762794 93.00956442755461 34.14215028932955 H 0.0 **** 0.06
10919 H 90.92950426798876 91.72276062727877 33.743934457026434 H 0.0 **** 0.06
10920 H 89.42447690894784 91.3249285737063 34.60701293001238 H 0.0 **** 0.06
10921 C 50.78305503337663 102.52231678907361 66.05187843544067 C 0.0 **** -0.24
10922 H 49.896886958603375 102.63243830067995 65.42665450536012 H 0.0 **** 0.06
10923 H 51.3754589919908 101.67848122395907 65.69718887685302 H 0.0 **** 0.06
10924 H 50.47992075980619 102.34640952192728 67.08353959396386 H 0.0 **** 0.06
10925 H 51.37986134470907 103.43394965897406 65.99915840993489 H 0.0 **** 0.06
10926 C 110.5216781777763 77.38185284241695 85.88411010650711 C 0.0 **** -0.24
10927 H 109.8062624049985 78.03639653646843 85.38573032287212 H 0.0 **** 0.06
10928 H 110.0589585201613 76.94360110562792 86.76821613611207 H 0.0 **** 0.06
10929 H 111.39710925949583 77.96076358037249 86.18155327766641 H 0.0 **** 0.06
10930 H 110.82549810559641 76.58827759246617 85.20126800041913 H 0.0 **** 0.06
10931 C 92.2634988763457 103.08674856582704 96.64135703093933 C 0.0 **** -0.24
10932 H 92.92819357938333 103.94938966887523 96.63437744214116 H 0.0 **** 0.06
10933 H 92.01643669232863 102.8089262747099 95.61632598163709 H 0.0 **** 0.06
10934 H 91.34945993446303 103.33613099298651 97.18010164633586 H 0.0 **** 0.06
10935 H 92.75917702826786 102.2503701833034 97.13547745933258 H 0.0 **** 0.06
10936 C 66.01969829123851 81.61270948456915 61.5134030470077 C 0.0 **** -0.24
10937 H 66.24325495646568 82.63659487218615 61.214632809166545 H 0.0 **** 0.06
10938 H 64.98663066472177 81.5527794481247 61.85740927379105 H 0.0 **** 0.06
10939 H 66.6898706330315 81.31613240633384 62.320722479323905 H 0.0 **** 0.06
10940 H 66.15963771336307 80.94755160096226 60.66168979473241 H 0.0 **** 0.06
10941 C 29.92974403917603 34.704964819956075 38.95089081988132 C 0.0 **** -0.24
10942 H 29.942913472503136 33.99095917764737 38.12668263574224 H 0.0 **** 0.06
10943 H 29.83055584763305 34.16735829609149 39.89479472366541 H 0.0 **** 0.06
10944 H 29.086944797113176 35.38524788337057 38.82878865049564 H 0.0 **** 0.06
10945 H 30.85920010903868 35.27446663728762 38.95217736807122 H 0.0 **** 0.06
10946 C 54.15181904404591 89.46215174000281 6.204440624936012 C 0.0 **** -0.24
10947 H 54.036086179477536 88.62515675799659 6.89281758713129 H 0.0 **** 0.06
10948 H 54.62566320090065 90.29559860562205 6.723867848389347 H 0.0 **** 0.06
10949 H 53.17160189568233 89.77059731627543 5.840213700612452 H 0.0 **** 0.06
10950 H 54.77270473803384 89.15634213521457 5.362781575623558 H 0.0 **** 0.06
10951 C 46.432160162707135 78.22008541235815 48.544936616235006 C 0.0 **** -0.24
10952 H 45.91097440708961 78.90606026789763 49.21304475576911 H 0.0 **** 0.06
10953 H 47.23556045484116 78.75187512511269 48.033881529580135 H 0.0 **** 0.06
10954 H 45.72998458768336 77.827041380409 47.80892542748044 H 0.0 **** 0.06
10955 H 46.85009829955527 77.39757683345758 49.12376975251725 H 0.0 **** 0.06
10956 C 16.046150959047694 87.80423813294398 10.660716783815587 C 0.0 **** -0.24
10957 H 14.992639801866549 87.57135495085332 10.50889726506685 H 0.0 **** 0.06
10958 H 16.660125023273757 87.04931542042637 10.169362418790087 H 0.0 **** 0.06
10959 H 16.266780390591325 87.81460361625685 11.727944850058748 H 0.0 **** 0.06
10960 H 16.265892470340013 88.78441291769798 10.235752432174422 H 0.0 **** 0.06
10961 C 108.4218706354547 109.52541702130273 27.73179349193792 C 0.0 **** -0.24
10962 H 108.71464637585177 109.89860180765154 28.71331121971079 H 0.0 **** 0.06
10963 H 108.19703369129425 108.46118163444496 27.800086445765842 H 0.0 **** 0.06
10964 H 109.23844317959636 109.67984899576305 27.02608559808226 H 0.0 **** 0.06
10965 H 107.538543078303 110.06329728849488 27.387774903267868 H 0.0 **** 0.06
10966 C 95.23952824752371 105.66371050876242 90.27082468775671 C 0.0 **** -0.24
10967 H 95.18437766058028 106.34825763607074 91.11717224564467 H 0.0 **** 0.06
10968 H 95.472551505632 104.66135763338212 90.6293472073911 H 0.0 **** 0.06
10969 H 96.01803136653456 105.99564407967029 89.58496721743762 H 0.0 **** 0.06
10970 H 94.28021252706048 105.65045949938462 89.75307249062479 H 0.0 **** 0.06
10971 C 52.10539937838411 52.15901650641643 99.27626610141346 C 0.0 **** -0.24
10972 H 51.20690239809733 52.74997052625739 99.09712061246898 H 0.0 **** 0.06
10973 H 51.87284003147715 51.10098293582325 99.15714580342467 H 0.0 **** 0.06
10974 H 52.464357214431146 52.34148321346546 100.28887001869117 H 0.0 **** 0.06
10975 H 52.876438320444436 52.444766356042855 98.56003458404115 H 0.0 **** 0.06
10976 C 27.55016883072698 39.18041343202623 11.700915026048339 C 0.0 **** -0.24
10977 H 27.40402439911832 38.752947629918594 12.692321745319518 H 0.0 **** 0.06
10978 H 27.691629718162375 38.377475442746544 10.977138138042438 H 0.0 **** 0.06
10979 H 28.43168553453929 39.82233705711664 11.708723796972976 H 0.0 **** 0.06
10980 H 26.675435852917296 39.76842703862087 11.424866634846943 H 0.0 **** 0.06
10981 C 105.52850286279346 108.9194271955919 14.481686230309663 C 0.0 **** -0.24
10982 H 106.11450652302852 108.76797898674126 15.38848043703939 H 0.0 **** 0.06
10983 H 105.62655614521458 109.95541799551067 14.155662869439482 H 0.0 **** 0.06
10984 H 104.48123211046794 108.69953399306705 14.684702005498366 H 0.0 **** 0.06
10985 H 105.89497519471036 108.2558438168836 13.698395933891021 H 0.0 **** 0.06
10986 C 41.13896701773626 77.95241674470591 108.96098681470706 C 0.0 **** -0.24
10987 H 41.87347591185322 77.14740784175042 108.94131717006942 H 0.0 **** 0.06
10988 H 41.61455407968626 78.86886558618343 109.31096402365336 H 0.0 **** 0.06
10989 H 40.32471247084345 77.68596419709185 109.6346151311176 H 0.0 **** 0.06
10990 H 40.74449748571098 78.10775107319489 107.95693025489824 H 0.0 **** 0.06
10991 C 96.25168980874969 26.097183382204634 78.35497700542837 C 0.0 **** -0.24
10992 H 95.79388492910982 25.253973379475667 77.83786083701247 H 0.0 **** 0.06
10993 H 95.47329653077821 26.717354267754075 78.79976970505996 H 0.0 **** 0.06
10994 H 96.82670805465418 26.690087236219114 77.64362786726733 H 0.0 **** 0.06
10995 H 96.91406483620796 25.72765363613837 79.1379716793013 H 0.0 **** 0.06
10996 C 71.19322123453742 53.99456613575629 85.72991067556607 C 0.0 **** -0.24
10997 H 71.26638543312885 54.112351740051196 86.81097038484226 H 0.0 **** 0.06
10998 H 71.73755875236114 54.80161382276526 85.23901630773034 H 0.0 **** 0.06
10999 H 70.14510259752441 54.0289577802657 85.43249834123458 H 0.0 **** 0.06
11000 H 71.62246632778877 53.03636983948087 85.43961947718059 H 0.0 **** 0.06
11001 C 84.37293665881937 36.952609978860465 49.3524091230268 C 0.0 **** -0.24
11002 H 85.13406789639289 36.52551394256608 50.00443036397749 H 0.0 **** 0.06
11003 H 83.38563099366961 36.636972485190654 49.691906013594334 H 0.0 **** 0.06
11004 H 84.53403634130761 36.60706489136797 48.33150461701331 H 0.0 **** 0.06
11005 H 84.43708420528408 38.040698240707485 49.382118180519555 H 0.0 **** 0.06
11006 C 9.053858449440526 102.94939536695392 81.81632750463511 C 0.0 **** -0.24
11007 H 9.06549534557729 102.59047147839277 82.84598902153651 H 0.0 **** 0.06
11008 H 9.50374600587574 102.19904892672832 81.16558254309184 H 0.0 **** 0.06
11009 H 9.622177535044301 103.87689377227878 81.75017123845306 H 0.0 **** 0.06
11010 H 8.024713871251805 103.12998924899148 81.50690254341083 H 0.0 **** 0.06
11011 C 2.7113424409929223 31.87039996161394 80.0174354022339 C 0.0 **** -0.24
11012 H 2.1589078252874714 30.93671560946683 79.90314109475958 H 0.0 **** 0.06
11013 H 3.0875042136300124 31.94725964092754 81.03732923759446 H 0.0 **** 0.06
11014 H 2.0493993344582577 32.7105465912083 79.80864964979793 H 0.0 **** 0.06
11015 H 3.547401909964819 31.884273072069277 79.31850433841811 H 0.0 **** 0.06
11016 C 88.31171041184058 46.99575628272473 2.040515097816785 C 0.0 **** -0.24
11017 H 89.25640054089706 46.58452411760681 2.3974328310197954 H 0.0 **** 0.06
11018 H 87.8862159897196 47.64434496269245 2.8072952905135793 H 0.0 **** 0.06
11019 H 87.61936856079825 46.1816205874785 1.826755020503306 H 0.0 **** 0.06
11020 H 88.48746736679911 47.57250339201554 1.132853939917993 H 0.0 **** 0.06
11021 C 104.62895169653831 8.082867448910065 39.819688007951754 C 0.0 **** -0.24
11022 H 104.7118215504554 7.299151963200785 39.06648604613832 H 0.0 **** 0.06
11023 H 105.53065764047705 8.094467910088952 40.43186148520425 H 0.0 **** 0.06
11024 H 103.76208075556872 7.887504192697463 40.451764414457784 H 0.0 **** 0.06
11025 H 104.50925126563305 9.048133306783 39.328288829498206 H 0.0 **** 0.06
11026 C 0.5187412736183088 33.838032644856014 38.451388629898645 C 0.0 **** -0.24
11027 H 1.340854883051012 33.96243975075208 39.15622452678372 H 0.0 **** 0.06
11028 H 0.8401923489192704 34.15512757479104 37.45951286010671 H 0.0 **** 0.06
11029 H -0.32873815167259135 34.44394526664627 38.77049836068551 H 0.0 **** 0.06
11030 H 0.22470723532796377 32.7885920176314 38.42014850131699 H 0.0 **** 0.06
11031 C 33.260200858925145 58.70293700110955 104.40596784453493 C 0.0 **** -0.24
11032 H 33.62095384444933 58.31384406627586 105.3582427735715 H 0.0 **** 0.06
11033 H 32.7100178444266 59.62857990355849 104.57771321879704 H 0.0 **** 0.06
11034 H 32.60335278625155 57.96924059108318 103.93915233788474 H 0.0 **** 0.06
11035 H 34.108155258546276 58.9005514564044 103.75048680257237 H 0.0 **** 0.06
11036 C 36.01887767173025 86.70657031430022 31.458809324430177 C 0.0 **** -0.24
11037 H 36.100046659134875 85.65209372869333 31.723441720163635 H 0.0 **** 0.06
11038 H 36.98237956409059 87.0650581471532 31.0962915446097 H 0.0 **** 0.06
11039 H 35.72547443099734 87.28029544086468 32.338174206508 H 0.0 **** 0.06
11040 H 35.2683704852131 86.82819385609628 30.678748337817183 H 0.0 **** 0.06
11041 C 3.825216671537845 41.38300734101338 43.60953160996792 C 0.0 **** -0.24
11042 H 3.8103076240518448 41.18884731325596 42.53649795375246 H 0.0 **** 0.06
11043 H 2.984536644693719 42.02426585175374 43.87398228001629 H 0.0 **** 0.06
11044 H 4.7596527087408305 41.87919537061612 43.87535184168095 H 0.0 **** 0.06
11045 H 3.7487852115382907 40.43931283369619 44.1502945007297 H 0.0 **** 0.06
11046 C 23.584444860298674 100.58825901212117 13.400358952849164 C 0.0 **** -0.24
11047 H 23.810952979354028 101.32959731454821 14.166997183735027 H 0.0 **** 0.06
11048 H 24.26630833135397 100.7136868449395 12.560042616135096 H 0.0 **** 0.06
11049 H 22.55755446976525 100.72172028462847 13.058991392784687 H 0.0 **** 0.06
11050 H 23.70008072183819 99.58784796962686 13.81778279824437 H 0.0 **** 0.06
11051 C 29.075373387020818 22.521574222258465 112.53346812812825 C 0.0 **** -0.24
11052 H 28.188077722823664 22.258246898790503 113.10928640221574 H 0.0 **** 0.06
11053 H 29.920886279755905 21.923280713393382 112.87631140075753 H 0.0 **** 0.06
11054 H 29.297839981222126 23.57945731968013 112.67440620590668 H 0.0 **** 0.06
11055 H 28.895092718189346 22.325368791604575 111.47758805103057 H 0.0 **** 0.06
11056 C 42.611807821154414 39.546980359262136 60.16500903387046 C 0.0 **** -0.24
11057 H 42.179908047956545 40.020109656260786 59.283478107991584 H 0.0 **** 0.06
11058 H 43.63385429159237 39.23516904305632 59.94783786008017 H 0.0 **** 0.06
11059 H 42.01653940551037 38.67643583741665 60.439014974866 H 0.0 **** 0.06
11060 H 42.6170303546958 40.25792623778847 60.99235741492957 H 0.0 **** 0.06
11061 C 42.74847386988441 100.69524843286129 70.66646194809063 C 0.0 **** -0.24
11062 H 43.43616665154923 99.92357600144152 70.32223414276228 H 0.0 **** 0.06
11063 H 42.061815519610064 100.26943223009111 71.40004056546768 H 0.0 **** 0.06
11064 H 42.18108664557218 101.08121415812934 69.81957898623693 H 0.0 **** 0.06
11065 H 43.312842900577294 101.50667459383904 71.12542785813623 H 0.0 **** 0.06
11066 C 30.593185515127672 51.886589964932284 50.44497145350134 C 0.0 **** -0.24
11067 H 30.74012533888947 51.909662943279216 51.5252019530941 H 0.0 **** 0.06
11068 H 29.541163149102744 51.70390409732818 50.2257743429535 H 0.0 **** 0.06
11069 H 31.19804021636081 51.08911191795988 50.01384724218447 H 0.0 **** 0.06
11070 H 30.893617783505135 52.842784216364464 50.017100522604345 H 0.0 **** 0.06
11071 C 16.67945360190521 0.03892319444739201 77.88444288774764 C 0.0 **** -0.24
11072 H 16.07497563541881 0.9383449852277295 77.76868294394768 H 0.0 **** 0.06
11073 H 17.661682439510855 0.20173548132910923 77.44216338885064 H 0.0 **** 0.06
11074 H 16.18743958172081 -0.7948509294111119 77.38214860036732 H 0.0 **** 0.06
11075 H 16.790985761380625 -0.1899455120149014 78.94416418658676 H 0.0 **** 0.06
11076 C 7.924218126781653 81.59741352730705 39.08598886458904 C 0.0 **** -0.24
11077 H 8.004951180968476 80.79560719774469 39.819513439482826 H 0.0 **** 0.06
11078 H 8.16123876571659 82.54956902893491 39.56188353473667 H 0.0 **** 0.06
11079 H 6.907345768101635 81.63041252834235 38.69492976039438 H 0.0 **** 0.06
11080 H 8.62271259934407 81.41486958621144 38.26985671278096 H 0.0 **** 0.06
11081 C 15.489929456958478 13.718736036370444 8.632497837589192 C 0.0 **** -0.24
11082 H 15.077585547074477 13.6753453822771 7.624892134565107 H 0.0 **** 0.06
11083 H 16.482331952333567 14.16997129617144 8.601118563605738 H 0.0 **** 0.06
11084 H 15.562037563992263 12.710246179448575 9.039697028701827 H 0.0 **** 0.06
11085 H 14.837444444383465 14.320003031741521 9.266407862373562 H 0.0 **** 0.06
11086 C 94.05340645896712 16.968843819074973 19.065068659781822 C 0.0 **** -0.24
11087 H 93.41089069421486 17.405766777876504 18.299708317217927 H 0.0 **** 0.06
11088 H 93.69029634547798 17.25796375066103 20.051061173630643 H 0.0 **** 0.06
11089 H 95.07306101010579 17.329910329140905 18.932260139579846 H 0.0 **** 0.06
11090 H 94.0379182732076 15.88206231378571 18.97558290422652 H 0.0 **** 0.06
11091 C 54.44496576592434 103.60552999885668 44.04969690692562 C 0.0 **** -0.24
11092 H 53.47664864484656 103.20678718628167 43.74953928424844 H 0.0 **** 0.06
11093 H 54.666712790520734 103.29122489013012 45.069600879519015 H 0.0 **** 0.06
11094 H 54.42029725864785 104.69403921884108 44.001099777704496 H 0.0 **** 0.06
11095 H 55.216530841449696 103.22937754944684 43.377902873296485 H 0.0 **** 0.06
11096 C 99.99584413490891 83.24486265905324 10.631892594068397 C 0.0 **** -0.24
11097 H 100.74337097122691 83.62509280693638 9.934862263707913 H 0.0 **** 0.06
11098 H 100.43061775452043 83.18063438212016 11.630088599112717 H 0.0 **** 0.06
11099 H 99.6717516767194 82.25541735719543 10.312188790703964 H 0.0 **** 0.06
11100 H 99.13998008217453 83.91969827558421 10.65118451044983 H 0.0 **** 0.06
11101 C 100.96187250732787 23.992982226420338 46.91010920831273 C 0.0 **** -0.24
11102 H 99.97318129550803 24.25368643362353 46.532489615997946 H 0.0 **** 0.06
11103 H 101.6404626673051 24.83238948209589 46.75703265276293 H 0.0 **** 0.06
11104 H 101.33555147851813 23.12026244755924 46.375331945854015 H 0.0 **** 0.06
11105 H 100.89643855070763 23.767443454071753 47.97452323254649 H 0.0 **** 0.06
11106 C 35.32588740907994 13.110992527556657 78.80651626327852 C 0.0 **** -0.24
11107 H 35.01061269461934 13.723915083327693 77.96182082912759 H 0.0 **** 0.06
11108 H 34.47706822481507 12.937288422582203 79.46718590568372 H 0.0 **** 0.06
11109 H 36.11394373998809 13.627403709493485 79.3543294140232 H 0.0 **** 0.06
11110 H 35.704587239598254 12.156355940827428 78.43974106499337 H 0.0 **** 0.06
11111 C 51.765219262546424 75.75521004622763 52.00550175626586 C 0.0 **** -0.24
11112 H 51.21676079646386 75.53274234143356 52.92175231300749 H 0.0 **** 0.06
11113 H 51.44463705395748 75.07438675465579 51.216372933226864 H 0.0 **** 0.06
11114 H 52.833490517698436 75.63141615875867 52.182781604731076 H 0.0 **** 0.06
11115 H 51.564504357629005 76.78355073664736 51.703384959108604 H 0.0 **** 0.06
11116 C 37.571958740502524 31.095428836746933 67.39838416016539 C 0.0 **** -0.24
11117 H 37.42326255164478 30.51787715519719 68.31070923799092 H 0.0 **** 0.06
11118 H 36.61751665382292 31.21681931773346 66.88630780071006 H 0.0 **** 0.06
11119 H 38.27063406884053 30.57129907004908 66.7470361186943 H 0.0 **** 0.06
11120 H 37.97572002915761 32.075235420808355 67.65177986942183 H 0.0 **** 0.06
11121 C 109.42279169393501 85.44338350321948 42.933037161347954 C 0.0 **** -0.24
11122 H 110.1675988767406 85.81021022885179 42.22635760054581 H 0.0 **** 0.06
11123 H 108.46134981439214 85.91125259183326 42.72388525348774 H 0.0 **** 0.06
11124 H 109.7340659814886 85.68946287134025 43.9483916969952 H 0.0 **** 0.06
11125 H 109.33102808250669 84.36151834652384 42.832778385762765 H 0.0 **** 0.06
11126 C 90.50454391135419 88.61616615347232 77.72669320570648 C 0.0 **** -0.24
11127 H 90.59552361396979 89.666707292321 77.45187776651659 H 0.0 **** 0.06
11128 H 89.93919512953482 88.08756578313523 76.95903184084787 H 0.0 **** 0.06
11129 H 89.98614120077313 88.53379347164095 78.68258754658734 H 0.0 **** 0.06
11130 H 91.49800963407455 88.17584857523109 77.81425384738782 H 0.0 **** 0.06
11131 C 56.667358731079105 83.70820537573985 86.27515229636866 C 0.0 **** -0.24
11132 H 56.25175376746722 82.7202913981053 86.07419683616365 H 0.0 **** 0.06
11133 H 55.8637820403755 84.44542251683811 86.27523572547479 H 0.0 **** 0.06
11134 H 57.392516977396895 83.96051804238391 85.50181125902247 H 0.0 **** 0.06
11135 H 57.15789180868228 83.70494211956441 87.24760337599267 H 0.0 **** 0.06
11136 C 113.56308024018261 27.96246341773235 21.377805514235945 C 0.0 **** -0.24
11137 H 112.66979759301906 28.50370394210549 21.066303746519793 H 0.0 **** 0.06
11138 H 113.59403242323891 26.993602944641168 20.87880658515516 H 0.0 **** 0.06
11139 H 113.53853630073121 27.81407559630452 22.45769543563648 H 0.0 **** 0.06
11140 H 114.44891354951167 28.538569326963966 21.110121199885924 H 0.0 **** 0.06
11141 C 64.28890816814794 89.47561514643331 80.52307851830662 C 0.0 **** -0.24
11142 H 64.1755579170239 88.49042542841478 80.07110786359704 H 0.0 **** 0.06
11143 H 63.420703665269684 90.08841950722237 80.27943463266665 H 0.0 **** 0.06
11144 H 65.19055764398917 89.95042674167922 80.13653523409221 H 0.0 **** 0.06
11145 H 64.36895273922636 89.3717843292428 81.60514763802264 H 0.0 **** 0.06
11146 C 45.96508166186257 39.229674762075035 89.27943612245667 C 0.0 **** -0.24
11147 H 44.98305936943987 38.79949007158811 89.08448775690067 H 0.0 **** 0.06
11148 H 45.84647203357562 40.20206141519259 89.75872160752019 H 0.0 **** 0.06
11149 H 46.501911788457335 39.351458315022825 88.33809941643112 H 0.0 **** 0.06
11150 H 46.52847049100865 38.56659995266119 89.93642426002398 H 0.0 **** 0.06
11151 C 51.102217023878154 20.77914746157876 1.3926297732651918 C 0.0 **** -0.24
11152 H 51.15924383537569 21.09572103789305 0.35089386586089866 H 0.0 **** 0.06
11153 H 51.72385877935719 19.895325143047828 1.5378200724317495 H 0.0 **** 0.06
11154 H 50.06855836051375 20.543080393122136 1.6447778275891132 H 0.0 **** 0.06
11155 H 51.45952501596864 21.583771012927727 2.036069397780464 H 0.0 **** 0.06
11156 C 98.7683962760056 70.138331505781 103.21537782989321 C 0.0 **** -0.24
11157 H 98.97706202296575 70.01527707419055 104.27909437342106 H 0.0 **** 0.06
11158 H 98.8182533577029 71.19665949785042 102.95732794060223 H 0.0 **** 0.06
11159 H 97.77230584221354 69.75711812069184 102.99455062710138 H 0.0 **** 0.06
11160 H 99.50722709635892 69.58706574913796 102.63461231875135 H 0.0 **** 0.06
11161 C 104.07414244206943 6.339352943619772 0.055505263428869966 C 0.0 **** -0.24
11162 H 104.03593168070857 6.816277827880739 -0.9233149878427298 H 0.0 **** 0.06
11163 H 103.6352590980092 7.0035169380336555 0.8003651014672357 H 0.0 **** 0.06
11164 H 105.11172866297754 6.133372559473216 0.3192200631439448 H 0.0 **** 0.06
11165 H 103.5140209911106 5.405125121481149 0.026045971526883704 H 0.0 **** 0.06
11166 C 104.28673197768654 84.39728642041297 44.86413907911146 C 0.0 **** -0.24
11167 H 105.25090288477293 84.84773195477993 45.0974345383345 H 0.0 **** 0.06
11168 H 104.27153584198422 83.3672374247152 45.22132633887756 H 0.0 **** 0.06
11169 H 104.13134532575725 84.41005661563031 43.785444751446555 H 0.0 **** 0.06
11170 H 103.49327531895591 84.9632465662147 45.352820193763186 H 0.0 **** 0.06
11171 C 54.432655007447266 20.531769233755483 16.488515753208553 C 0.0 **** -0.24
11172 H 54.81936626206901 21.042789675515024 15.607021541085192 H 0.0 **** 0.06
11173 H 54.899459691085134 19.549173673807758 16.571972542722683 H 0.0 **** 0.06
11174 H 53.352822240387745 20.414581420502202 16.394996828174527 H 0.0 **** 0.06
11175 H 54.65915176062367 21.118954926699416 17.378206548088492 H 0.0 **** 0.06
11176 C 87.43847377996303 99.42161815311596 108.69934033234533 C 0.0 **** -0.24
11177 H 86.93360387062404 100.29343967365935 108.2835830124363 H 0.0 **** 0.06
11178 H 86.84638560206596 98.52875676252273 108.49842322778689 H 0.0 **** 0.06
11179 H 87.55203160544869 99.5478673157636 109.77608929573327 H 0.0 **** 0.06
11180 H 88.42150305980198 99.31876410719195 108.23982751105909 H 0.0 **** 0.06
11181 C 97.2303440626975 16.26554491298745 40.015782129284496 C 0.0 **** -0.24
11182 H 97.99275907747136 16.247554253757073 40.794311649056496 H 0.0 **** 0.06
11183 H 96.30236445532944 16.666422544090267 40.42605965152354 H 0.0 **** 0.06
11184 H 97.05988017899034 15.253323318026332 39.651541879028656 H 0.0 **** 0.06
11185 H 97.56625555718404 16.896935100168406 39.192542482092236 H 0.0 **** 0.06
11186 C 43.12665648629164 66.38133562884354 86.77468408322159 C 0.0 **** -0.24
11187 H 42.534871215944776 67.29275921424858 86.68564567973374 H 0.0 **** 0.06
11188 H 43.022932560634686 65.79093884065321 85.86395603883449 H 0.0 **** 0.06
11189 H 42.774958352603846 65.8013455328292 87.62696418512888 H 0.0 **** 0.06
11190 H 44.17505672094066 66.64347885303687 86.92060012720452 H 0.0 **** 0.06
11191 C 5.670093695185297 32.57606092097041 43.80714238339215 C 0.0 **** -0.24
11192 H 5.861745512670613 31.526924705671078 43.581194695636555 H 0.0 **** 0.06
11193 H 4.727435075763124 32.878942450355446 43.35130352790989 H 0.0 **** 0.06
11194 H 6.480085821934503 33.186728701688914 43.40901157992951 H 0.0 **** 0.06
11195 H 5.611605276616869 32.70972651775464 44.888090236027494 H 0.0 **** 0.06
11196 C 109.92461647002787 62.5184046999709 80.55260451384781 C 0.0 **** -0.24
11197 H 109.86702418425878 63.582808347325326 80.32467126650369 H 0.0 **** 0.06
11198 H 110.08496248644641 62.38331347661955 81.62251109960815 H 0.0 **** 0.06
11199 H 110.75299184883676 62.07317105872551 80.0015448158209 H 0.0 **** 0.06
11200 H 108.99232494943277 62.03387371695163 80.26012737011015 H 0.0 **** 0.06
11201 C 85.38617453735979 114.21001951393937 74.39394955945568 C 0.0 **** -0.24
11202 H 86.31727300050649 114.72105852063082 74.15228812503113 H 0.0 **** 0.06
11203 H 84.55763883018233 114.9163931324579 74.3387637948208 H 0.0 **** 0.06
11204 H 85.44792270397998 113.7999367594158 75.4028935407847 H 0.0 **** 0.06
11205 H 85.22222195409884 113.40027054425904 73.68327404699812 H 0.0 **** 0.06
11206 C 99.44128814448095 20.32275423988753 109.299862050494 C 0.0 **** -0.24
11207 H 98.41222487599896 20.034161797317537 109.08572250194331 H 0.0 **** 0.06
11208 H 99.71528621942639 21.178634706116895 108.68249159967388 H 0.0 **** 0.06
11209 H 100.10568852321876 19.48769099942119 109.07847086611122 H 0.0 **** 0.06
11210 H 99.53271170349734 20.589885504452482 110.35286166993043 H 0.0 **** 0.06
11211 C 92.51875299553171 71.94105499743921 111.49399665920853 C 0.0 **** -0.24
11212 H 91.9997179816861 71.63039302565159 112.40068091577714 H 0.0 **** 0.06
11213 H 92.11105984993048 72.89242782135068 111.15004653246726 H 0.0 **** 0.06
11214 H 92.38098873791796 71.18580479611455 110.72009827562465 H 0.0 **** 0.06
11215 H 93.581650235116 72.05594367854292 111.70573844792301 H 0.0 **** 0.06
11216 C 69.58997840474913 105.95023581838177 29.117166521421865 C 0.0 **** -0.24
11217 H 69.1870847446688 104.96730686502605 29.358953326235024 H 0.0 **** 0.06
11218 H 68.88369665161797 106.71902736701998 29.43048615169198 H 0.0 **** 0.06
11219 H 69.75229978120318 106.02178584267773 28.041348246085875 H 0.0 **** 0.06
11220 H 70.53683244150645 106.09282319880302 29.637878361674638 H 0.0 **** 0.06
11221 C 82.34716852451604 61.546499565954264 71.96394884765789 C 0.0 **** -0.24
11222 H 83.06421877940586 61.93194538555022 71.23894745407767 H 0.0 **** 0.06
11223 H 81.45334772719588 61.20374622999847 71.44225630119956 H 0.0 **** 0.06
11224 H 82.07903553504588 62.338256891120125 72.66436705392368 H 0.0 **** 0.06
11225 H 82.79261115067149 60.71449687460225 72.50805165275432 H 0.0 **** 0.06
11226 C 78.49672135701485 81.11210182581299 3.7750494036729236 C 0.0 **** -0.24
11227 H 77.97970892979352 82.07125676289075 3.808253723134115 H 0.0 **** 0.06
11228 H 78.2292284922224 80.58781277805991 2.857482986220404 H 0.0 **** 0.06
11229 H 78.20357777144879 80.5114749767095 4.635835529330919 H 0.0 **** 0.06
11230 H 79.57367951572004 81.2793055856033 3.797062839647438 H 0.0 **** 0.06
11231 C 53.75360230273847 23.295146199472246 3.863175409407688 C 0.0 **** -0.24
11232 H 54.5266322310037 23.640110020391738 4.549795567752312 H 0.0 **** 0.06
11233 H 53.20142206640264 22.47460251311779 4.321102901019927 H 0.0 **** 0.06
11234 H 54.21773848412181 22.951487020787035 2.9386444265054763 H 0.0 **** 0.06
11235 H 53.07178581083207 24.116296030183882 3.643710749755499 H 0.0 **** 0.06
11236 C 108.05288437601243 50.72167322361827 5.375021330365712 C 0.0 **** -0.24
11237 H 108.10365826056315 51.204355647070656 6.351598163405981 H 0.0 **** 0.06
11238 H 108.27259072508217 49.65887516783323 5.483377453055255 H 0.0 **** 0.06
11239 H 108.78356722941597 51.177189053949746 4.706495741868878 H 0.0 **** 0.06
11240 H 107.05315826440449 50.846098347492386 4.96031833208194 H 0.0 **** 0.06
11241 C 90.09563065625395 73.74652346350769 36.3405970604692 C 0.0 **** -0.24
11242 H 89.62837674614906 72.91816716332822 36.872479695646284 H 0.0 **** 0.06
11243 H 91.08048884179027 73.44119555523461 35.98493589331767 H 0.0 **** 0.06
11244 H 90.20045078835903 74.59741769985847 37.014799830648414 H 0.0 **** 0.06
11245 H 89.47436537354264 74.03019385139116 35.49187034457729 H 0.0 **** 0.06
11246 C 50.07974078112679 59.302739952147434 100.63549759896 C 0.0 **** -0.24
11247 H 50.166760943308944 59.70812592277578 101.64331267715428 H 0.0 **** 0.06
11248 H 49.08765879060229 58.87121308287014 100.5024132565263 H 0.0 **** 0.06
11249 H 50.835718238058966 58.53101980327365 100.48714765762068 H 0.0 **** 0.06
11250 H 50.22999793662611 60.10134750931256 99.90885716140383 H 0.0 **** 0.06
11251 C 58.580071360764975 59.710945160730034 66.41789375812247 C 0.0 **** -0.24
11252 H 58.581262932135814 60.758100914000806 66.7247619882101 H 0.0 **** 0.06
11253 H 59.58745515369907 59.42037677997456 66.1184868291455 H 0.0 **** 0.06
11254 H 57.89726880249299 59.57990655004048 65.57820743360298 H 0.0 **** 0.06
11255 H 58.254719645464434 59.088867962073664 67.2514498441997 H 0.0 **** 0.06
11256 C 77.85183369914044 114.67642902600154 99.18577369142344 C 0.0 **** -0.24
11257 H 78.60612250163312 115.02942113375558 98.48258202160201 H 0.0 **** 0.06
11258 H 78.28761983941068 113.91556496634571 99.83282920898034 H 0.0 **** 0.06
11259 H 77.01366347974324 114.24978427929616 98.63497201370811 H 0.0 **** 0.06
11260 H 77.50127169563622 115.51230994476002 99.7921316643509 H 0.0 **** 0.06
11261 C 25.616944037674727 13.922622841152126 59.70128590121476 C 0.0 **** -0.24
11262 H 26.283676140508163 13.698810585935817 60.535037678520666 H 0.0 **** 0.06
11263 H 24.982231645655588 14.769742906326655 59.961332682366674 H 0.0 **** 0.06
11264 H 24.995235216226945 13.052894132889485 59.491003670911 H 0.0 **** 0.06
11265 H 26.2093909086839 14.167230344168328 58.819532284412276 H 0.0 **** 0.06
11266 C 106.70018823087511 67.42932307477469 80.11706897376288 C 0.0 **** -0.24
11267 H 107.27251940951999 67.43176790227272 79.1891074272402 H 0.0 **** 0.06
11268 H 106.9481323816346 66.53685791946789 80.69313346363246 H 0.0 **** 0.06
11269 H 105.63531845160327 67.42934544226901 79.8866826773276 H 0.0 **** 0.06
11270 H 106.94604312939597 68.31773481580592 80.69797554845626 H 0.0 **** 0.06
11271 C 56.26779615469701 101.65235434521735 13.092486553251973 C 0.0 **** -0.24
11272 H 56.70066826280993 102.25945064123508 12.297075081662484 H 0.0 **** 0.06
11273 H 55.3801195658354 102.14846726226295 13.485576658117651 H 0.0 **** 0.06
11274 H 56.99837347032147 101.52783187353268 13.891916667417576 H 0.0 **** 0.06
11275 H 55.99295346110803 100.67588254740059 12.69489905391356 H 0.0 **** 0.06
11276 C 102.05587399031629 20.12278633674063 62.47677078587964 C 0.0 **** -0.24
11277 H 103.05755212509867 20.52539692838735 62.329603793554725 H 0.0 **** 0.06
11278 H 101.3222707211034 20.919420674216298 62.352004825388235 H 0.0 **** 0.06
11279 H 101.97492657031626 19.70934497214671 63.48284801796811 H 0.0 **** 0.06
11280 H 101.86856825727176 19.33754192197793 61.74478424834962 H 0.0 **** 0.06
11281 C 28.488650391730076 52.47215148771102 113.74191331199428 C 0.0 **** -0.24
11282 H 27.952084624364332 52.006975411623785 114.5684602941911 H 0.0 **** 0.06
11283 H 27.89053957167178 53.28571957301372 113.3325138463724 H 0.0 **** 0.06
11284 H 28.67341782752436 51.72967104726399 112.96568310409502 H 0.0 **** 0.06
11285 H 29.440058159063085 52.86522608381324 114.10184836283995 H 0.0 **** 0.06
11286 C 96.52637852657645 54.396196888169015 100.89961191831861 C 0.0 **** -0.24
11287 H 95.57684851805624 54.70022443935312 101.34031995583021 H 0.0 **** 0.06
11288 H 96.97718770040186 53.61446369849921 101.51085724942021 H 0.0 **** 0.06
11289 H 97.19591375024036 55.25478719324633 100.85432624193038 H 0.0 **** 0.06
11290 H 96.35373495999606 54.0165785665572 99.8919191305705 H 0.0 **** 0.06
11291 C 112.60211752933856 32.280325334575224 16.1839079073157 C 0.0 **** -0.24
11292 H 112.96643726878527 31.625600284499257 15.392641355560698 H 0.0 **** 0.06
11293 H 113.43894816767995 32.82972533689866 16.614653365303752 H 0.0 **** 0.06
11294 H 112.121476719308 31.681878488682486 16.95766195358641 H 0.0 **** 0.06
11295 H 111.88037781334663 32.984065053801885 15.768128161725656 H 0.0 **** 0.06
11296 C 5.000151591096255 106.1469542859029 77.83909400088463 C 0.0 **** -0.24
11297 H 6.089625918063234 106.11237477840234 77.84248605431075 H 0.0 **** 0.06
11298 H 4.623561008343785 105.82774171869283 78.8104952467913 H 0.0 **** 0.06
11299 H 4.617730595891146 105.48259130036553 77.06463062469777 H 0.0 **** 0.06
11300 H 4.670746192187352 107.16673582860227 77.6382774638801 H 0.0 **** 0.06
11301 C 97.55252100543035 46.74982684316561 11.757768582694382 C 0.0 **** -0.24
11302 H 97.84982891010729 46.081313755019096 12.566223813587584 H 0.0 **** 0.06
11303 H 97.56506775943807 46.20531075332457 10.8139750029639 H 0.0 **** 0.06
11304 H 98.24904042981147 47.58698540670213 11.704694820710046 H 0.0 **** 0.06
11305 H 96.54693196965782 47.124794636903275 11.948931898208883 H 0.0 **** 0.06
11306 C 67.59395834506812 105.7718271446931 10.346574787564407 C 0.0 **** -0.24
11307 H 67.94230119344674 106.79681639119518 10.478949015964474 H 0.0 **** 0.06
11308 H 66.67779285627559 105.77366286389679 9.754893236384817 H 0.0 **** 0.06
11309 H 67.39753779859286 105.32696939420885 11.321497368877516 H 0.0 **** 0.06
11310 H 68.35891093827489 105.19282945961301 9.829322667473065 H 0.0 **** 0.06
11311 C 85.93047555915285 6.345510982419796 55.53466134482546 C 0.0 **** -0.24
11312 H 86.96696446626979 6.295624793477771 55.867893475430115 H 0.0 **** 0.06
11313 H 85.46371199256373 5.367920968715964 55.6552726704092 H 0.0 **** 0.06
11314 H 85.89958004690982 6.637346061613485 54.4852123123394 H 0.0 **** 0.06
11315 H 85.39250054660681 7.081114072377829 56.13314239591281 H 0.0 **** 0.06
11316 C 103.31189668787607 83.86237806162887 81.85363813865264 C 0.0 **** -0.24
11317 H 103.22279808615025 83.22356755915972 82.73290783209423 H 0.0 **** 0.06
11318 H 103.37811601981201 83.24255247409772 80.95995153448804 H 0.0 **** 0.06
11319 H 104.21050276865915 84.47472810503625 81.93928384258328 H 0.0 **** 0.06
11320 H 102.43701825190357 84.5090072250973 81.78468154081658 H 0.0 **** 0.06
11321 C 103.92770945005594 71.22847458751403 107.84276807256714 C 0.0 **** -0.24
11322 H 103.55420299699438 72.16980128890458 107.4405163037735 H 0.0 **** 0.06
11323 H 104.23178324723995 71.37230702865293 108.88030553978138 H 0.0 **** 0.06
11324 H 104.78510010082204 70.89701440313905 107.25625547912415 H 0.0 **** 0.06
11325 H 103.14171268683049 70.47501459582008 107.79544300300586 H 0.0 **** 0.06
11326 C 77.39675102789133 48.465433113550944 26.334005464086204 C 0.0 **** -0.24
11327 H 78.32113571669639 48.5716757680039 25.766737476986123 H 0.0 **** 0.06
11328 H 76.57547194282714 48.24210287857392 25.652834531136193 H 0.0 **** 0.06
11329 H 77.18766661883367 49.39587063529683 26.86271174448825 H 0.0 **** 0.06
11330 H 77.50388662896741 47.654186545693165 27.054225941038794 H 0.0 **** 0.06
11331 C 54.83983000684111 47.78839191394701 48.52065865848701 C 0.0 **** -0.24
11332 H 55.536059748891326 48.61720735096616 48.64785400977014 H 0.0 **** 0.06
11333 H 54.02573320559717 47.88357009596969 49.23961352526262 H 0.0 **** 0.06
11334 H 55.36284213981342 46.847222102413035 48.68575912288511 H 0.0 **** 0.06
11335 H 54.43522657553398 47.806459107776384 47.508452542215295 H 0.0 **** 0.06
11336 C 25.21294728011563 35.185427452886586 8.196252641218692 C 0.0 **** -0.24
11337 H 25.837527028417952 35.00235761415743 7.322903325744917 H 0.0 **** 0.06
11338 H 24.303398892590707 35.70246796359186 7.889833944236557 H 0.0 **** 0.06
11339 H 25.75840643110655 35.80278386063321 8.910394059861076 H 0.0 **** 0.06
11340 H 24.9518647414628 34.23485732090592 8.662155986085253 H 0.0 **** 0.06
11341 C 52.98128364961798 61.39700251327852 92.15723271867432 C 0.0 **** -0.24
11342 H 53.30795597261613 61.76133094419258 93.13158562310696 H 0.0 **** 0.06
11343 H 52.58967958513858 62.22841004004336 91.57089719090988 H 0.0 **** 0.06
11344 H 52.20138061623953 60.6479590649803 92.2940015768196 H 0.0 **** 0.06
11345 H 53.826908007254076 60.94901004477521 91.63539390490362 H 0.0 **** 0.06
11346 C 24.564056633578517 105.41755332269551 62.54434380498162 C 0.0 **** -0.24
11347 H 24.998921448754004 105.19810922223635 63.52009915598765 H 0.0 **** 0.06
11348 H 24.439283296544872 106.49607389187696 62.437921702202914 H 0.0 **** 0.06
11349 H 23.59405322545524 104.92865720728332 62.46051382608893 H 0.0 **** 0.06
11350 H 25.22620138709498 105.0490038582264 61.76115471797695 H 0.0 **** 0.06
11351 C 106.84495071950147 80.80297199726347 56.91902162536971 C 0.0 **** -0.24
11352 H 106.41065055978532 81.31195077980587 56.05850054584619 H 0.0 **** 0.06
11353 H 107.22970299243912 79.83137900944892 56.61075996877635 H 0.0 **** 0.06
11354 H 106.07979714894127 80.66588424400281 57.68275422487061 H 0.0 **** 0.06
11355 H 107.6588584791394 81.40533059599021 57.32351251093773 H 0.0 **** 0.06
11356 C 28.22893422541639 35.378924016053105 101.52378651102464 C 0.0 **** -0.24
11357 H 28.704596136244078 34.409742410902915 101.67846487407775 H 0.0 **** 0.06
11358 H 28.956170147443245 36.172195786088636 101.70023319979674 H 0.0 **** 0.06
11359 H 27.395042982539742 35.488778626858014 102.21730214239642 H 0.0 **** 0.06
11360 H 27.860743546402695 35.44274203503004 100.49971988598583 H 0.0 **** 0.06
11361 C 83.06532999271076 111.40810721962785 102.18517411253521 C 0.0 **** -0.24
11362 H 82.75032650094721 110.7499972962427 101.37526072579317 H 0.0 **** 0.06
11363 H 82.25661554355224 111.50349016762945 102.909784760641 H 0.0 **** 0.06
11364 H 83.3090951771278 112.3907963593015 101.78072117746416 H 0.0 **** 0.06
11365 H 83.94410170852512 110.98764630815356 102.67309766221769 H 0.0 **** 0.06
11366 C 38.679943233084686 103.73494383103503 91.64308169681473 C 0.0 **** -0.24
11367 H 39.3620131409875 103.01224322270829 92.08999217644356 H 0.0 **** 0.06
11368 H 38.550019292378664 103.50627672440328 90.58546236227838 H 0.0 **** 0.06
11369 H 39.09330812372525 104.73886794939521 91.74952650625193 H 0.0 **** 0.06
11370 H 37.71494208174403 103.68456118011983 92.14746936965236 H 0.0 **** 0.06
11371 C 65.51591213593468 78.77235445058426 29.061068427690287 C 0.0 **** -0.24
11372 H 66.04665668138409 78.44048036022488 29.954022755760263 H 0.0 **** 0.06
11373 H 66.1872885261433 78.73081774596466 28.20299673122618 H 0.0 **** 0.06
11374 H 65.16960350850982 79.79573601888205 29.203932099113203 H 0.0 **** 0.06
11375 H 64.66058261721562 78.12024613325468 28.883767213637462 H 0.0 **** 0.06
11376 C 80.25104160253038 10.143342543033793 106.42780935273862 C 0.0 **** -0.24
11377 H 79.46072777247045 10.806000815555112 106.07757297553097 H 0.0 **** 0.06
11378 H 81.12354601982335 10.734475748954875 106.70677378189103 H 0.0 **** 0.06
11379 H 80.52084169057406 9.447781655488239 105.63323052731545 H 0.0 **** 0.06
11380 H 79.89849396554834 9.58445295108806 107.29572308418693 H 0.0 **** 0.06
11381 C 28.724236183176657 6.1961876906343605 105.01278810822924 C 0.0 **** -0.24
11382 H 28.190592258089623 6.721237939177868 104.22146335240787 H 0.0 **** 0.06
11383 H 29.549732804291523 6.814104189117742 105.36610253366327 H 0.0 **** 0.06
11384 H 29.115130349718157 5.255494204760751 104.62465142541615 H 0.0 **** 0.06
11385 H 28.042387480135346 5.992491587023565 105.83852402607722 H 0.0 **** 0.06
11386 C 32.295206983949726 11.687780384222592 98.2993573891619 C 0.0 **** -0.24
11387 H 32.15668820512016 11.956902134233417 97.25201474674772 H 0.0 **** 0.06
11388 H 31.336738297973056 11.399081023388888 98.73012296441482 H 0.0 **** 0.06
11389 H 32.69642272720944 12.542891562795631 98.84358194663153 H 0.0 **** 0.06
11390 H 32.99301451360333 10.852216088601452 98.36974648446892 H 0.0 **** 0.06
11391 C 14.279515163289318 72.39083056831764 46.40087655525573 C 0.0 **** -0.24
11392 H 15.069588289364873 72.86634757639068 45.82079939506258 H 0.0 **** 0.06
11393 H 13.492590232849949 72.04620832757874 45.72964094394045 H 0.0 **** 0.06
11394 H 13.865688796039905 73.11097881061683 47.10753267037872 H 0.0 **** 0.06
11395 H 14.689786961702254 71.54112663241763 46.94573779923179 H 0.0 **** 0.06
11396 C 82.15094321089677 62.361482941557256 26.863665261626068 C 0.0 **** -0.24
11397 H 82.03391898957025 62.72594179378871 27.884587232598903 H 0.0 **** 0.06
11398 H 82.69357930731078 61.415802202050486 26.876219408727877 H 0.0 **** 0.06
11399 H 82.70899135320742 63.09285867463939 26.27886668580841 H 0.0 **** 0.06
11400 H 81.16805622766698 62.21229353640081 26.417102574820092 H 0.0 **** 0.06
11401 C 75.9696167985355 98.38516123131699 69.3101994274565 C 0.0 **** -0.24
11402 H 76.54009523480558 97.64702708578484 69.8736795723951 H 0.0 **** 0.06
11403 H 74.90468749984375 98.23235785258473 69.48564536262904 H 0.0 **** 0.06
11404 H 76.18294585004453 98.27456594271355 68.24775514065692 H 0.0 **** 0.06
11405 H 76.251958343693 99.38639033625394 69.63556703787972 H 0.0 **** 0.06
11406 C 40.40791389397566 74.37741455203093 12.392788481710504 C 0.0 **** -0.24
11407 H 40.98820351754705 74.32408731693039 11.471306660206881 H 0.0 **** 0.06
11408 H 40.03436333201415 75.39238429315725 12.527253861290315 H 0.0 **** 0.06
11409 H 41.04103357739632 74.10714340996228 13.23672059804376 H 0.0 **** 0.06
11410 H 39.566753391165435 73.68620471516749 12.332368505409338 H 0.0 **** 0.06
11411 C 111.38683540509743 109.00838974313007 50.89216220559433 C 0.0 **** -0.24
11412 H 112.31803875757791 109.15143516302132 50.34502802351259 H 0.0 **** 0.06
11413 H 111.46188113237173 108.11272891368284 51.50941694529156 H 0.0 **** 0.06
11414 H 110.56428107335827 108.89548202059623 50.18682561922423 H 0.0 **** 0.06
11415 H 111.20302809963039 109.87431350729781 51.528287564662975 H 0.0 **** 0.06
11416 C 57.61964209791515 82.05077871937505 90.05947981010684 C 0.0 **** -0.24
11417 H 57.29259654831715 81.8037917938949 89.04968963644642 H 0.0 **** 0.06
11418 H 56.91838760341666 82.75720535880208 90.50566608530224 H 0.0 **** 0.06
11419 H 58.61184549918379 82.4990400220826 90.02081844968708 H 0.0 **** 0.06
11420 H 57.653794178729356 81.1434607146152 90.66201378429174 H 0.0 **** 0.06
11421 C 37.00152523033 85.81441232034076 97.27668814273675 C 0.0 **** -0.24
11422 H 36.499827227218645 85.08015086969618 96.64719093597138 H 0.0 **** 0.06
11423 H 37.82612130923394 85.33787082979838 97.80557753860963 H 0.0 **** 0.06
11424 H 36.291254533895085 86.21931022300376 97.99870398264522 H 0.0 **** 0.06
11425 H 37.38671307110076 86.62335467002 96.65523242801171 H 0.0 **** 0.06
11426 C 40.809579944253954 108.13854829674193 7.74604921826716 C 0.0 **** -0.24
11427 H 41.4864788197813 107.28596159554142 7.6941130477525626 H 0.0 **** 0.06
11428 H 40.0995527911747 107.98904409072645 8.559455321866562 H 0.0 **** 0.06
11429 H 40.27008738321902 108.23221019273423 6.8038874777308695 H 0.0 **** 0.06
11430 H 41.383790478966176 109.0479131813672 7.927513835302346 H 0.0 **** 0.06
11431 C 61.59309870140349 79.84929303573546 19.012093014634154 C 0.0 **** -0.24
11432 H 62.12265898732059 80.77493031694138 19.237876290885723 H 0.0 **** 0.06
11433 H 60.585057148614126 80.08219318248342 18.667121454721123 H 0.0 **** 0.06
11434 H 61.53780348759811 79.23466895813823 19.91026683106145 H 0.0 **** 0.06
11435 H 62.127313434379786 79.30677260114487 18.23217587509666 H 0.0 **** 0.06
11436 C 11.18145024431908 94.5178549444839 46.2625657387548 C 0.0 **** -0.24
11437 H 12.03601151467926 94.32423479646701 45.61536194994153 H 0.0 **** 0.06
11438 H 10.998584800508553 95.59147320215345 46.310237905850954 H 0.0 **** 0.06
11439 H 11.391404980128797 94.14071328823835 47.26392870378368 H 0.0 **** 0.06
11440 H 10.301476711602248 94.01631383588048 45.86194178137845 H 0.0 **** 0.06
11441 C 103.21710660650115 29.02137672963547 18.329743128692485 C 0.0 **** -0.24
11442 H 103.45435184666664 30.011529824643574 17.940193237606678 H 0.0 **** 0.06
11443 H 102.57941823837406 28.494780843010822 17.619709417385366 H 0.0 **** 0.06
11444 H 102.69578012025028 29.121591921406818 19.28191547881221 H 0.0 **** 0.06
11445 H 104.13911022949968 28.459615672303514 18.47853281526241 H 0.0 **** 0.06
11446 C 1.734138756780652 103.75229378721319 28.68936573283966 C 0.0 **** -0.24
11447 H 1.4459231102148635 102.94417377721464 28.018180765716608 H 0.0 **** 0.06
11448 H 2.675055936515321 103.50023773372232 29.179047457826584 H 0.0 **** 0.06
11449 H 0.9583375990599734 103.8931098748621 29.442341814472172 H 0.0 **** 0.06
11450 H 1.857584099467644 104.6723434585486 28.118529176265696 H 0.0 **** 0.06
11451 C 44.203568347327064 33.535692164268966 70.81874817945469 C 0.0 **** -0.24
11452 H 45.044737103994294 33.8172412550158 70.18452279221253 H 0.0 **** 0.06
11453 H 43.57334247345008 32.82086784162993 70.28855655777919 H 0.0 **** 0.06
11454 H 43.62059110130082 34.423960313565686 71.06188142207189 H 0.0 **** 0.06
11455 H 44.576117302392646 33.08244900388195 71.73692159451515 H 0.0 **** 0.06
11456 C 83.56381150859335 61.78458359736409 54.473041224757 C 0.0 **** -0.24
11457 H 84.12152249670709 62.60493635323627 54.92525952118864 H 0.0 **** 0.06
11458 H 84.00229715646518 61.53677495709884 53.506040807785716 H 0.0 **** 0.06
11459 H 82.52485089652271 62.08405462187446 54.335086489148864 H 0.0 **** 0.06
11460 H 83.6072592718217 60.91309024138607 55.12690070736944 H 0.0 **** 0.06
11461 C 2.8186846109175576 58.41664737531835 2.498994719522102 C 0.0 **** -0.24
11462 H 2.902111637691405 58.93511793807403 1.5442105972910554 H 0.0 **** 0.06
11463 H 1.7928597797671273 58.48609840434972 2.861846706205341 H 0.0 **** 0.06
11464 H 3.4914957982690566 58.87613502623907 3.223011814199566 H 0.0 **** 0.06
11465 H 3.087273810097429 57.36798845725269 2.3675758232476767 H 0.0 **** 0.06
11466 C 46.140019701770655 68.18699283348845 76.35493822402168 C 0.0 **** -0.24
11467 H 47.1870677047238 68.08781740342027 76.64079002780335 H 0.0 **** 0.06
11468 H 45.781739215255584 67.2398437503498 75.95081411001607 H 0.0 **** 0.06
11469 H 46.041779011717836 68.96558778562833 75.59769500792714 H 0.0 **** 0.06
11470 H 45.54872826648784 68.4557599249677 77.23103600252125 H 0.0 **** 0.06
11471 C 74.42795906971844 12.033365263109829 17.365935263613224 C 0.0 **** -0.24
11472 H 74.66199474870929 12.128112056540385 18.42652704595508 H 0.0 **** 0.06
11473 H 75.13018667343651 12.630564511030965 16.784101080785444 H 0.0 **** 0.06
11474 H 73.41228231929867 12.38720490026629 17.18631383191754 H 0.0 **** 0.06
11475 H 74.50590832506155 10.988021605399435 17.068087865442205 H 0.0 **** 0.06
11476 C 109.17458010950843 85.34875223285587 50.72778358624839 C 0.0 **** -0.24
11477 H 109.23317377313892 85.99188102068149 49.849917607924624 H 0.0 **** 0.06
11478 H 110.16516326899983 84.95142896940087 50.95265882459529 H 0.0 **** 0.06
11479 H 108.48788390259593 84.52617803985032 50.53058188303544 H 0.0 **** 0.06
11480 H 108.8140517464642 85.92820214941867 51.57799160541657 H 0.0 **** 0.06
11481 C 64.7370598044148 42.54282200007549 67.81822654113279 C 0.0 **** -0.24
11482 H 65.44445008424736 42.91855372355646 67.07861566617127 H 0.0 **** 0.06
11483 H 65.2821947011484 42.0526029006941 68.62523569222328 H 0.0 **** 0.06
11484 H 64.0648474081155 41.826814967859065 67.34616940819431 H 0.0 **** 0.06
11485 H 64.15797404011326 43.37331106188775 68.22218217894174 H 0.0 **** 0.06
11486 C 22.690514770057348 16.580553178758183 95.22529028422097 C 0.0 **** -0.24
11487 H 22.701848334109798 17.559586924416678 94.74841932460355 H 0.0 **** 0.06
11488 H 23.015417658272042 16.677140614197867 96.26186040083823 H 0.0 **** 0.06
11489 H 23.365576202822723 15.909606702921074 94.69374211070502 H 0.0 **** 0.06
11490 H 21.678707631078396 16.175149779270946 95.19862585236059 H 0.0 **** 0.06
11491 C 67.5040735413051 68.7172797764627 60.48563085204145 C 0.0 **** -0.24
11492 H 68.04174148506723 69.57039106644947 60.89967538534978 H 0.0 **** 0.06
11493 H 67.5401613752536 67.88722370466405 61.192307036805744 H 0.0 **** 0.06
11494 H 67.96957966738654 68.41506598685572 59.54673122532603 H 0.0 **** 0.06
11495 H 66.46598635273887 68.99581943998567 60.30332282036065 H 0.0 **** 0.06
11496 C 4.184923509605397 42.217155222896224 75.35901744546962 C 0.0 **** -0.24
11497 H 3.284552799023558 41.66224660462504 75.09470591928886 H 0.0 **** 0.06
11498 H 4.2328836676175285 42.33670198640792 76.441599994591 H 0.0 **** 0.06
11499 H 4.157451329141509 43.198874262789985 74.88565649620392 H 0.0 **** 0.06
11500 H 5.0620183790572355 41.67092245483107 75.01300607764637 H 0.0 **** 0.06
11501 C 35.04521714096528 25.53218128405308 80.24667216566314 C 0.0 **** -0.24
11502 H 35.7112282425816 25.66275468779662 79.39329745520638 H 0.0 **** 0.06
11503 H 34.25126971401773 26.27831210588971 80.20467365014429 H 0.0 **** 0.06
11504 H 35.61082652088882 25.654607745703004 81.1704331480509 H 0.0 **** 0.06
11505 H 34.608459522813895 24.534844209828606 80.2168896800008 H 0.0 **** 0.06
11506 C 31.918067016828616 43.75272884103812 94.4320253637215 C 0.0 **** -0.24
11507 H 31.643388063826194 44.64150429705658 93.86357374861501 H 0.0 **** 0.06
11508 H 32.38066565165184 44.05170036475045 95.37246944442893 H 0.0 **** 0.06
11509 H 32.623985082321894 43.1554579716559 93.8538758881001 H 0.0 **** 0.06
11510 H 31.024916625937863 43.16270010147993 94.6366567358067 H 0.0 **** 0.06
11511 C 18.26138022079556 94.5471636806196 93.42115860602156 C 0.0 **** -0.24
11512 H 17.431519267219045 95.13109887147675 93.02366141205675 H 0.0 **** 0.06
11513 H 19.193680680392845 95.08962529794726 93.26660195835625 H 0.0 **** 0.06
11514 H 18.308711867621952 93.58720754901134 92.90819815387015 H 0.0 **** 0.06
11515 H 18.109076790349008 94.38168927971341 94.48833034362328 H 0.0 **** 0.06
11516 C 39.13723781934311 108.21671662504853 21.41943827754403 C 0.0 **** -0.24
11517 H 38.076392446263185 108.28958228951855 21.66307397859191 H 0.0 **** 0.06
11518 H 39.67220941213861 109.04832343120661 21.877655526960325 H 0.0 **** 0.06
11519 H 39.264154101036354 108.25399984469603 20.337077975137476 H 0.0 **** 0.06
11520 H 39.53310077478716 107.2747693437992 21.799323002606286 H 0.0 **** 0.06
11521 C 41.301766018762805 109.72320562903862 49.28929515936568 C 0.0 **** -0.24
11522 H 41.554863911103666 110.74710973317038 49.01413629743956 H 0.0 **** 0.06
11523 H 41.575856912417436 109.05110187478523 48.47585413243917 H 0.0 **** 0.06
11524 H 40.23032420148425 109.65007965543238 49.47536925781992 H 0.0 **** 0.06
11525 H 41.84754921315462 109.44453948954882 50.1910093441947 H 0.0 **** 0.06
11526 C 44.40200849089808 103.78908224692546 93.84262297332964 C 0.0 **** -0.24
11527 H 43.458781403897405 103.34796584291692 94.16778238330238 H 0.0 **** 0.06
11528 H 44.21753748987865 104.78617560983537 93.44295958847027 H 0.0 **** 0.06
11529 H 44.84632262171999 103.16303496981021 93.06830110172777 H 0.0 **** 0.06
11530 H 45.082597458877245 103.85692193004604 94.69098725557038 H 0.0 **** 0.06
11531 C 92.9799116923528 85.62426967926895 45.16019237536295 C 0.0 **** -0.24
11532 H 93.67579047217123 85.88125819488525 44.360786814267556 H 0.0 **** 0.06
11533 H 92.08134044395126 86.23492451391176 45.06816532400421 H 0.0 **** 0.06
11534 H 93.45089111954906 85.81262059285027 46.12529335537147 H 0.0 **** 0.06
11535 H 92.71346660380902 84.57030358292542 45.083975508775666 H 0.0 **** 0.06
11536 C 94.72794429521485 54.81456173852924 86.96966283904504 C 0.0 **** -0.24
11537 H 95.14707446222944 55.81726048874716 86.88570645312677 H 0.0 **** 0.06
11538 H 95.5339158101579 54.08016019663044 86.9432444071158 H 0.0 **** 0.06
11539 H 94.04580460232849 54.634912659407526 86.13891367061146 H 0.0 **** 0.06
11540 H 94.18508097481022 54.72494950974058 87.91103346947233 H 0.0 **** 0.06
11541 C 95.04603531218771 14.075816336206827 73.50761107003655 C 0.0 **** -0.24
11542 H 94.55422307911033 13.545309105780774 74.32395134985278 H 0.0 **** 0.06
11543 H 94.35838118481917 14.161209977481576 72.66495728467017 H 0.0 **** 0.06
11544 H 95.93387138687626 13.524324619947038 73.19894049949858 H 0.0 **** 0.06
11545 H 95.33444054218708 15.071128187534839 73.84355781486266 H 0.0 **** 0.06
11546 C 55.57908964221485 101.07870490416227 60.967045256346296 C 0.0 **** -0.24
11547 H 55.769074859325485 100.85581148646712 59.916727807418084 H 0.0 **** 0.06
11548 H 55.506932672556076 102.1588285145511 61.10110498651335 H 0.0 **** 0.06
11549 H 56.397596235799824 100.69105496108361 61.57375444901868 H 0.0 **** 0.06
11550 H 54.64418371451495 100.61100847321599 61.274747178617474 H 0.0 **** 0.06
11551 C 5.638152759649712 54.9558652563577 86.92979258121379 C 0.0 **** -0.24
11552 H 5.994586623482181 54.05280385592158 86.43349468085658 H 0.0 **** 0.06
11553 H 5.554753417312309 54.771807799526584 88.00157289380887 H 0.0 **** 0.06
11554 H 4.661059632275288 55.228852199064136 86.53097468510346 H 0.0 **** 0.06
11555 H 6.34265118689018 55.76883692998052 86.75469670321642 H 0.0 **** 0.06
11556 C 52.1662845998682 6.038951613966304 73.71809022790904 C 0.0 **** -0.24
11557 H 51.12160000794205 5.767509237740256 73.86637924738669 H 0.0 **** 0.06
11558 H 52.801463766119205 5.188332806691335 73.96350533785484 H 0.0 **** 0.06
11559 H 52.41816506548749 6.879550129901645 74.36516592469158 H 0.0 **** 0.06
11560 H 52.32317871131101 6.322691949555747 72.67678273717833 H 0.0 **** 0.06
11561 C 48.79761719254964 13.036706158950398 8.470925996989294 C 0.0 **** -0.24
11562 H 48.0883744942079 13.70031666405022 8.96642826071286 H 0.0 **** 0.06
11563 H 48.90479037629822 13.334709546726742 7.426779655750934 H 0.0 **** 0.06
11564 H 48.43191292079061 12.011634480351166 8.520935311142765 H 0.0 **** 0.06
11565 H 49.76545576791257 13.102890569627593 8.968811244747442 H 0.0 **** 0.06
11566 C 47.41190147063995 3.767986671553331 94.16328150957885 C 0.0 **** -0.24
11567 H 47.06924276179504 4.613764684831494 94.75943343525164 H 0.0 **** 0.06
11568 H 46.950042138838256 2.852916271851882 94.53373213236281 H 0.0 **** 0.06
11569 H 48.49533206023426 3.6854524470290926 94.23868517036959 H 0.0 **** 0.06
11570 H 47.13017923501789 3.9208003182270517 93.12163852619263 H 0.0 **** 0.06
11571 C 29.629242643990835 57.90114325413981 32.81087437245503 C 0.0 **** -0.24
11572 H 28.83282464995483 58.27079831165406 32.164253830772594 H 0.0 **** 0.06
11573 H 30.59337250368759 58.05945970569519 32.32606703252645 H 0.0 **** 0.06
11574 H 29.48372716452579 56.83579307049149 32.991893243525084 H 0.0 **** 0.06
11575 H 29.606890850393313 58.43768754720884 33.75921458132714 H 0.0 **** 0.06
11576 C 4.8960040992373575 89.66256671237034 39.583640956736104 C 0.0 **** -0.24
11577 H 5.476205064704272 89.49889723858303 38.67461521961545 H 0.0 **** 0.06
11578 H 4.5024958205862635 90.67851707448222 39.58490115970761 H 0.0 **** 0.06
11579 H 5.536877966547268 89.5180579104076 40.45359409603057 H 0.0 **** 0.06
11580 H 4.069890406166477 88.95184925739466 39.61896036840986 H 0.0 **** 0.06
11581 C 64.40533487457259 47.372593994358226 77.6867576459329 C 0.0 **** -0.24
11582 H 63.34729990029736 47.41647210009165 77.4265917122917 H 0.0 **** 0.06
11583 H 64.53286295622569 46.77029872732503 78.58730118281028 H 0.0 **** 0.06
11584 H 64.77707979943811 48.38147060119064 77.86896445428685 H 0.0 **** 0.06
11585 H 64.96333626459513 46.92269235633245 76.86522703034758 H 0.0 **** 0.06
11586 C 71.2816961413205 5.109873369653883 115.05687210095982 C 0.0 **** -0.24
11587 H 71.97160935342112 5.618784768171054 114.38428496217534 H 0.0 **** 0.06
11588 H 71.15501247148751 5.701841253895566 115.96343861220873 H 0.0 **** 0.06
11589 H 71.68270803929344 4.1296563593480755 115.31437669419779 H 0.0 **** 0.06
11590 H 70.3168614222836 4.989612132799152 114.56416858433897 H 0.0 **** 0.06
11591 C 59.87867351520117 108.89735943136688 18.30628045651298 C 0.0 **** -0.24
11592 H 60.65192359428886 109.62217063632501 18.051654090176925 H 0.0 **** 0.06
11593 H 59.912288792092625 108.06746271689497 17.598914828805363 H 0.0 **** 0.06
11594 H 58.90175723797046 109.37706839565813 18.257276559673073 H 0.0 **** 0.06
11595 H 60.050238376334875 108.52282129273395 19.31450123013616 H 0.0 **** 0.06
11596 C 11.470471659520115 56.36550695145681 49.792863769342915 C 0.0 **** -0.24
11597 H 10.951528889811726 55.47500100718442 49.43844296219521 H 0.0 **** 0.06
11598 H 11.435568218768623 57.136767494082065 49.02344874677226 H 0.0 **** 0.06
11599 H 12.508465341173746 56.117534427791824 50.013046099756394 H 0.0 **** 0.06
11600 H 10.985262421064789 56.73145490241974 50.6976397849655 H 0.0 **** 0.06
11601 C 23.424646145836334 93.6369645457729 102.8616508608982 C 0.0 **** -0.24
11602 H 23.160830438062277 92.68463625132922 102.40240298861562 H 0.0 **** 0.06
11603 H 23.964910865811703 93.45527666577881 103.79094797310248 H 0.0 **** 0.06
11604 H 22.51601721397384 94.20200587330467 103.07368721427117 H 0.0 **** 0.06
11605 H 24.055622463458974 94.2065953880027 102.17991329919997 H 0.0 **** 0.06
11606 C 85.52478178396768 49.850038020934136 97.00178267326177 C 0.0 **** -0.24
11607 H 85.51598494397393 50.19654819215714 98.03534055129252 H 0.0 **** 0.06
11608 H 86.40042543334286 50.25178266727144 96.49142787355927 H 0.0 **** 0.06
11609 H 84.62061037856009 50.18928677026392 96.49622069300564 H 0.0 **** 0.06
11610 H 85.5635383533415 48.7611127209578 96.98553026829322 H 0.0 **** 0.06
11611 C 1.4896525830038758 115.24201610970852 68.2456778478047 C 0.0 **** -0.24
11612 H 1.4091131819197713 114.15938962827494 68.33650618907524 H 0.0 **** 0.06
11613 H 0.5247208598741011 115.65492992502709 67.94940335178441 H 0.0 **** 0.06
11614 H 2.2370136356854236 115.48819307986281 67.49127946507139 H 0.0 **** 0.06
11615 H 1.7877201842914374 115.66593405922043 69.20416143259735 H 0.0 **** 0.06
11616 C 48.027394294085205 4.521351903646291 12.009725967149194 C 0.0 **** -0.24
11617 H 48.52718681881348 3.8046258508860546 12.660723436616252 H 0.0 **** 0.06
11618 H 48.77311364537058 5.150076368335135 11.521891135386781 H 0.0 **** 0.06
11619 H 47.35707857376722 5.144942615741655 12.602141422944285 H 0.0 **** 0.06
11620 H 47.451714657123155 3.9870779633718882 11.25312968498477 H 0.0 **** 0.06
11621 C 85.09808252594996 7.061846396151296 51.39672213809325 C 0.0 **** -0.24
11622 H 85.82414910782376 7.481278025275529 52.09292179588484 H 0.0 **** 0.06
11623 H 84.84131234827623 6.048161797174217 51.70517828395781 H 0.0 **** 0.06
11624 H 85.52714202714262 7.04001912072269 50.395270675041566 H 0.0 **** 0.06
11625 H 84.19995571172626 7.67932030489618 51.39344476933516 H 0.0 **** 0.06
11626 C 98.47673359055757 70.2902400434516 45.94106915795214 C 0.0 **** -0.24
11627 H 98.11717223951266 70.25237377754542 44.91181727081482 H 0.0 **** 0.06
11628 H 97.91254656006048 71.0405377835877 46.49466091006332 H 0.0 **** 0.06
11629 H 99.53475466258281 70.55284615692267 45.94531306096667 H 0.0 **** 0.06
11630 H 98.34287476374419 69.31469763312504 46.408175523218915 H 0.0 **** 0.06
11631 C 113.00961004506536 105.01214413474077 110.0388440135493 C 0.0 **** -0.24
11632 H 113.30964183907511 104.21033780437966 109.3636202527012 H 0.0 **** 0.06
11633 H 112.16879456593941 104.67859249524508 110.64749105472741 H 0.0 **** 0.06
11634 H 112.71266954923635 105.8850569050106 109.45604448677949 H 0.0 **** 0.06
11635 H 113.84585886693517 105.27463727797607 110.68580748733055 H 0.0 **** 0.06
11636 C 3.326020415107786 96.30721828641276 104.79583245359063 C 0.0 **** -0.24
11637 H 2.820038305713691 95.37827899221446 105.0590100605929 H 0.0 **** 0.06
11638 H 2.6267335705839034 96.97010156318396 104.28605187786272 H 0.0 **** 0.06
11639 H 4.166669124063862 96.08969260421264 104.13658370761256 H 0.0 **** 0.06
11640 H 3.6906406600698958 96.79079998604021 105.7016841682943 H 0.0 **** 0.06
11641 C 113.89415785682138 62.6447875410508 115.3566393383891 C 0.0 **** -0.24
11642 H 114.61915859457972 63.44223559468129 115.19335096649064 H 0.0 **** 0.06
11643 H 113.60285240902014 62.21738800187093 114.39743378387837 H 0.0 **** 0.06
11644 H 113.01405847546542 63.05208456514967 115.85555400038538 H 0.0 **** 0.06
11645 H 114.34029648591721 61.87072832268929 115.97985769440695 H 0.0 **** 0.06
11646 C 112.88409868675052 74.03407863793973 49.84881770626916 C 0.0 **** -0.24
11647 H 112.31036075502391 73.10835460251695 49.881395288111165 H 0.0 **** 0.06
11648 H 113.68003167752505 73.99455536932123 50.591592278181764 H 0.0 **** 0.06
11649 H 112.22534452488782 74.87566313446496 50.065725774317755 H 0.0 **** 0.06
11650 H 113.31736822718898 74.15882110991339 48.85644006907367 H 0.0 **** 0.06
11651 C 114.43568488901487 8.004496096589662 92.30551503067646 C 0.0 **** -0.24
11652 H 113.67515665524282 7.243315837394704 92.1326337155355 H 0.0 **** 0.06
11653 H 114.37236567705797 8.352637728641994 93.33696240792115 H 0.0 **** 0.06
11654 H 114.27153413573879 8.8430579050343 91.62876826961892 H 0.0 **** 0.06
11655 H 115.42272750240964 7.579634267731123 92.12450169663428 H 0.0 **** 0.06
11656 C 0.32023282706470013 13.896227458212252 91.5293790400666 C 0.0 **** -0.24
11657 H -0.1020139782353624 13.598212086558505 90.56955559650252 H 0.0 **** 0.06
11658 H -0.276958844191995 13.470347177445547 92.33568211602517 H 0.0 **** 0.06
11659 H 0.3141757945380448 14.983526775424508 91.60691013486299 H 0.0 **** 0.06
11660 H 1.34523051564139 13.531834471754934 91.60318341961522 H 0.0 **** 0.06
11661 C 73.27800043218132 113.80107273287143 74.02224237131537 C 0.0 **** -0.24
11662 H 73.20889678622768 112.71309592488325 74.0545500438206 H 0.0 **** 0.06
11663 H 72.84086489861268 114.2194085805454 74.92848359530987 H 0.0 **** 0.06
11664 H 72.73810264767738 114.17324964619718 73.151936537833 H 0.0 **** 0.06
11665 H 74.32533473416471 114.09544767042587 73.95415554594194 H 0.0 **** 0.06
11666 C 56.01188594667846 91.6176637531931 76.92029616658454 C 0.0 **** -0.24
11667 H 55.91076152442311 92.06822060261038 75.93286062967263 H 0.0 **** 0.06
11668 H 55.05744923904588 91.18457508426894 77.22119712097378 H 0.0 **** 0.06
11669 H 56.30739223073958 92.38191736183755 77.63889827796999 H 0.0 **** 0.06
11670 H 56.7709813318765 90.8365494121126 76.88738569295282 H 0.0 **** 0.06
11671 C 100.31529722833619 22.366566918977565 88.81150802972202 C 0.0 **** -0.24
11672 H 101.12953970925656 21.70067881635694 88.52715662229004 H 0.0 **** 0.06
11673 H 100.5812955407137 23.394066413890066 88.55748754485597 H 0.0 **** 0.06
11674 H 100.1422181989823 22.29074126192311 89.88501987186643 H 0.0 **** 0.06
11675 H 99.40946713907991 22.08243608696695 88.27566935092514 H 0.0 **** 0.06
11676 C 40.95665137483127 27.99447530325608 1.0472762601931436 C 0.0 **** -0.24
11677 H 40.7275757938405 27.25906548726101 1.8189616718794923 H 0.0 **** 0.06
11678 H 40.02827170997236 28.40557342552239 0.6498720243024962 H 0.0 **** 0.06
11679 H 41.5157622181714 27.515717822438802 0.2428864688444179 H 0.0 **** 0.06
11680 H 41.554995777340935 28.797544477802347 1.4773848757462105 H 0.0 **** 0.06
11681 C 9.758670221774139 58.2120810523474 94.34187339868168 C 0.0 **** -0.24
11682 H 9.200045468343063 57.34386131866671 94.69422200711773 H 0.0 **** 0.06
11683 H 10.001850021797168 58.0831845758301 93.28670331949286 H 0.0 **** 0.06
11684 H 10.678915890040741 58.30997978934971 94.91839082392227 H 0.0 **** 0.06
11685 H 9.153173445332982 59.10899003103765 94.46965622960329 H 0.0 **** 0.06
11686 C 47.51948230003774 43.19897185365869 111.5309212008683 C 0.0 **** -0.24
11687 H 46.51797463763148 42.925531388639 111.20021556982843 H 0.0 **** 0.06
11688 H 47.8957199040041 44.01648948454579 110.91491810542965 H 0.0 **** 0.06
11689 H 48.18141155078785 42.33704919075598 111.43513150595317 H 0.0 **** 0.06
11690 H 47.48340088424068 43.51466123870881 112.57355243685947 H 0.0 **** 0.06
11691 C 106.09414933211474 54.23877591522173 52.40480767428062 C 0.0 **** -0.24
11692 H 107.03467090469452 54.039643496085745 52.92044526000586 H 0.0 **** 0.06
11693 H 105.41742881039035 54.76641347529167 53.07671278521099 H 0.0 **** 0.06
11694 H 105.64233699182128 53.295281710469865 52.098327891879165 H 0.0 **** 0.06
11695 H 106.28596096419847 54.85285798177013 51.52506222667964 H 0.0 **** 0.06
11696 C 49.51671251260751 62.36052284954897 30.869161548135253 C 0.0 **** -0.24
11697 H 49.99509541720289 61.63969912506671 31.533294508431965 H 0.0 **** 0.06
11698 H 48.44554512474019 62.386600111674994 31.073531450200534 H 0.0 **** 0.06
11699 H 49.683140343798186 62.06625805392015 29.833358715258925 H 0.0 **** 0.06
11700 H 49.94269121343115 63.34933585686787 31.039594954166603 H 0.0 **** 0.06
11701 C 93.46668364248428 2.316904451887339 79.5118940690516 C 0.0 **** -0.24
11702 H 93.2172131540277 1.2612970503009677 79.41228508302726 H 0.0 **** 0.06
11703 H 94.18382449458393 2.445725927889356 80.32395053622525 H 0.0 **** 0.06
11704 H 92.56269878667314 2.884606870709163 79.73293006449296 H 0.0 **** 0.06
11705 H 93.90390558244056 2.677079277328957 78.58085722626004 H 0.0 **** 0.06
11706 C 42.53238423417705 48.715800131325466 108.40265388202168 C 0.0 **** -0.24
11707 H 41.76841795091635 49.46118470257767 108.18341458818125 H 0.0 **** 0.06
11708 H 43.353564047760784 48.81707407444861 107.69291740372745 H 0.0 **** 0.06
11709 H 42.1006972240815 47.71786530490928 108.31886231420759 H 0.0 **** 0.06
11710 H 42.90558224531172 48.86597787205881 109.41501318836593 H 0.0 **** 0.06
11711 C 87.97607064420464 29.787552258848564 73.35569610044718 C 0.0 **** -0.24
11712 H 87.7788265600683 29.657043444425653 72.29090698218539 H 0.0 **** 0.06
11713 H 89.01248635940954 29.522843095450952 73.56766812308808 H 0.0 **** 0.06
11714 H 87.31047427789156 29.143064951589423 73.92955594312343 H 0.0 **** 0.06
11715 H 87.80260633159253 30.828423082724612 73.6318911584865 H 0.0 **** 0.06
11716 C 80.92770983144595 59.12999399513558 62.25563496634345 C 0.0 **** -0.24
11717 H 80.70111289230016 59.658133378753334 63.18221211570267 H 0.0 **** 0.06
11718 H 80.77310943590214 58.06024337485228 62.401226723252876 H 0.0 **** 0.06
11719 H 81.96556634929533 59.31381336456715 61.97851979056679 H 0.0 **** 0.06
11720 H 80.27025750333513 59.48859311715543 61.46353417157985 H 0.0 **** 0.06
11721 C 59.40038724327637 72.08132040747518 32.27329388684868 C 0.0 **** -0.24
11722 H 60.13407359885244 72.23179136411943 31.481385196175637 H 0.0 **** 0.06
11723 H 59.2084346563979 73.02974476551987 32.776220385538664 H 0.0 **** 0.06
11724 H 59.78478561228225 71.3594738886951 32.993227214302024 H 0.0 **** 0.06
11725 H 58.47226142717703 71.70446502751662 31.84093272375594 H 0.0 **** 0.06
11726 C 58.71688548257856 105.76302343167174 99.88746338513516 C 0.0 **** -0.24
11727 H 58.61312755193542 106.24725723254119 98.91597559562655 H 0.0 **** 0.06
11728 H 58.12812970062319 104.84423434318975 99.89908042705093 H 0.0 **** 0.06
11729 H 58.359389222457835 106.43382085836046 100.66819621125745 H 0.0 **** 0.06
11730 H 59.76510163830976 105.52447906638244 100.06425977481081 H 0.0 **** 0.06
11731 C 16.74238662232338 0.12427476297565931 15.593254153850665 C 0.0 **** -0.24
11732 H 17.273793987395806 -0.7611330862289378 15.941586872415911 H 0.0 **** 0.06
11733 H 15.704795381857366 -0.13442099932007068 15.383279283160647 H 0.0 **** 0.06
11734 H 17.215149324709117 0.49770261263103066 14.684740182263397 H 0.0 **** 0.06
11735 H 16.7765458283901 0.8956250327612167 16.363390200112008 H 0.0 **** 0.06
11736 C 48.19163268098657 107.14514635146156 105.5605881768771 C 0.0 **** -0.24
11737 H 48.10835310495449 106.14649554604699 105.13054434624696 H 0.0 **** 0.06
11738 H 49.22867781914724 107.4771916583822 105.50777839921045 H 0.0 **** 0.06
11739 H 47.86932035350691 107.11979524716563 106.6015783997362 H 0.0 **** 0.06
11740 H 47.559243269266204 107.83446492398329 105.00098018968484 H 0.0 **** 0.06
11741 C 93.1423882206662 84.35118957131507 103.59182243203583 C 0.0 **** -0.24
11742 H 93.5590200414005 83.92025812035398 102.68146395269713 H 0.0 **** 0.06
11743 H 92.16921847961422 84.79242059648381 103.37241073442885 H 0.0 **** 0.06
11744 H 93.81436999131691 85.12316305452786 103.96824647155194 H 0.0 **** 0.06
11745 H 93.02666720497382 83.57073530543369 104.34355131318563 H 0.0 **** 0.06
11746 C 110.25222152574844 101.62799233296833 70.44504131850294 C 0.0 **** -0.24
11747 H 110.03925433454076 101.11434708419164 71.38251989701396 H 0.0 **** 0.06
11748 H 109.32391524083643 101.7794577435082 69.89540766743298 H 0.0 **** 0.06
11749 H 110.93465106215139 101.02414393111646 69.84706257367525 H 0.0 **** 0.06
11750 H 110.71181520213565 102.59343490652603 70.65548326979174 H 0.0 **** 0.06
11751 C 29.412032189226295 42.797230673254035 74.73215902819436 C 0.0 **** -0.24
11752 H 29.367250139772352 41.87049504485384 75.30446332908053 H 0.0 **** 0.06
11753 H 30.42987924793323 42.95462631141919 74.37626087539064 H 0.0 **** 0.06
11754 H 29.115798165987087 43.63116316141583 75.36933845735547 H 0.0 **** 0.06
11755 H 28.73512466082468 42.73153728429736 73.88117780021719 H 0.0 **** 0.06
11756 C 7.963918444944781 79.64834478243819 27.61979077367579 C 0.0 **** -0.24
11757 H 8.88853090027726 80.17096294515966 27.37451007092352 H 0.0 **** 0.06
11758 H 7.254052699940871 79.76090427006528 26.799895304707206 H 0.0 **** 0.06
11759 H 7.538023715459616 80.0717348170432 28.529610607509994 H 0.0 **** 0.06
11760 H 8.174922336485992 78.59061991770318 27.775665704053665 H 0.0 **** 0.06
11761 C 68.12400879468622 111.79136568347262 84.43651446062947 C 0.0 **** -0.24
11762 H 68.70733584651202 110.99520936936615 83.97390746715635 H 0.0 **** 0.06
11763 H 68.79556519507831 112.50401820972817 84.91456769187238 H 0.0 **** 0.06
11764 H 67.45478028137082 111.3633932136847 85.18345379159057 H 0.0 **** 0.06
11765 H 67.53728940987462 112.30168882967682 83.67253591567837 H 0.0 **** 0.06
11766 C 14.503552778843272 89.97948806912615 51.86324571319392 C 0.0 **** -0.24
11767 H 13.816346292472616 89.72817257474958 51.05537423853002 H 0.0 **** 0.06
11768 H 14.024089557602395 89.78357272574112 52.82197284504153 H 0.0 **** 0.06
11769 H 14.769645910860248 91.03425744269538 51.79840331730273 H 0.0 **** 0.06
11770 H 15.40482465592035 89.3716000785978 51.776051540824966 H 0.0 **** 0.06
11771 C 107.6950295658268 41.82557147051676 69.52528340431485 C 0.0 **** -0.24
11772 H 107.72564042104302 41.364446665152144 70.51218330391146 H 0.0 **** 0.06
11773 H 108.21884518061559 42.78103325391871 69.55424092099977 H 0.0 **** 0.06
11774 H 106.65827215723684 41.98752046819749 69.23247787230736 H 0.0 **** 0.06
11775 H 108.17874310141136 41.167706553328316 68.80300330607326 H 0.0 **** 0.06
11776 C 97.80445156829163 56.562075283670424 0.5297585260657627 C 0.0 **** -0.24
11777 H 97.00892996660335 56.83597169677739 1.2223223549356135 H 0.0 **** 0.06
11778 H 97.85340666755039 57.29592640816605 -0.2750840136602619 H 0.0 **** 0.06
11779 H 97.60002301775573 55.57634038061258 0.11174270294367261 H 0.0 **** 0.06
11780 H 98.75649679528934 56.54079364178045 1.0606554701741118 H 0.0 **** 0.06
11781 C 15.66321347502124 65.57613677490542 39.71129294460769 C 0.0 **** -0.24
11782 H 15.793023087421378 64.87578138667061 38.88730250363153 H 0.0 **** 0.06
11783 H 15.593589157360327 65.02526736704132 40.64978319971431 H 0.0 **** 0.06
11784 H 14.750391351918509 66.15141207141158 39.558804842845575 H 0.0 **** 0.06
11785 H 16.516742333782677 66.2534103333779 39.74995303610797 H 0.0 **** 0.06
11786 C 45.668615037259485 74.97140876185813 18.22969173154644 C 0.0 **** -0.24
11787 H 45.65429981038909 75.31583954623974 17.195810189466044 H 0.0 **** 0.06
11788 H 45.88311461277419 75.8129320993005 18.889045206684813 H 0.0 **** 0.06
11789 H 46.43894913808623 74.2103738183576 18.34926460833708 H 0.0 **** 0.06
11790 H 44.69688784913359 74.54851909614311 18.485295281635246 H 0.0 **** 0.06
11791 C 82.70980505132901 1.6154547130841763 72.96274074816915 C 0.0 **** -0.24
11792 H 81.96991920280762 0.9124891964004007 73.34605262035063 H 0.0 **** 0.06
11793 H 83.26315729218724 2.0493154162403755 73.79550946308598 H 0.0 **** 0.06
11794 H 82.20541452602463 2.4069171690610176 72.40806160216297 H 0.0 **** 0.06
11795 H 83.39971206704699 1.0917300337481493 72.30029197231715 H 0.0 **** 0.06
11796 C 110.68733045162747 33.64096158581924 76.76489644536287 C 0.0 **** -0.24
11797 H 111.57253591675561 34.123444007329795 76.34930697501274 H 0.0 **** 0.06
11798 H 110.24974987119569 34.281932928148194 77.53060693782544 H 0.0 **** 0.06
11799 H 110.96983271316309 32.685083979432875 77.20731829497993 H 0.0 **** 0.06
11800 H 109.95939941804396 33.472879295023404 75.9706443711372 H 0.0 **** 0.06
11801 C 107.31233016193329 82.91943189737668 17.8195955134166 C 0.0 **** -0.24
11802 H 108.2776444339009 82.43402906625695 17.677958765954756 H 0.0 **** 0.06
11803 H 106.53373308842154 82.16059985216887 17.899876894430204 H 0.0 **** 0.06
11804 H 107.10250413244721 83.56635194639145 16.968217806178323 H 0.0 **** 0.06
11805 H 107.33506611802794 83.51507744644988 18.732055374679938 H 0.0 **** 0.06
11806 C 3.6990663443886547 56.886235728628606 98.52803329599945 C 0.0 **** -0.24
11807 H 3.7663314436317137 57.61769513400969 99.33301532537547 H 0.0 **** 0.06
11808 H 4.548707072308446 57.005814742260384 97.85631906621748 H 0.0 **** 0.06
11809 H 2.771952063850449 57.03927623750053 97.97492904526683 H 0.0 **** 0.06
11810 H 3.7078485131723937 55.88069062813207 98.95028151386704 H 0.0 **** 0.06
11811 C 49.81995093465621 82.4011721891277 65.88343173480453 C 0.0 **** -0.24
11812 H 49.766227063571066 81.6201099315597 65.12555377278534 H 0.0 **** 0.06
11813 H 49.37362241005828 82.03896130495859 66.81062092283929 H 0.0 **** 0.06
11814 H 49.27651864803545 83.28031139733568 65.53748066268733 H 0.0 **** 0.06
11815 H 50.862604126174105 82.6646102713402 66.06097961600517 H 0.0 **** 0.06
11816 C 48.6466118045314 48.323154044705994 74.95201881874425 C 0.0 **** -0.24
11817 H 47.90302545585038 47.920224494663394 74.26491210702463 H 0.0 **** 0.06
11818 H 48.14325057895297 48.81336439303855 75.78637662173917 H 0.0 **** 0.06
11819 H 49.27088870403338 49.046537755515324 74.42862714134638 H 0.0 **** 0.06
11820 H 49.2694251417571 47.511674246689466 75.32968095735981 H 0.0 **** 0.06
11821 C 72.53541488527532 36.60824618726474 103.07906443517317 C 0.0 **** -0.24
11822 H 72.78725055922115 36.1918981670633 102.10372773922433 H 0.0 **** 0.06
11823 H 72.87307137078983 35.92896322237243 103.86214127460983 H 0.0 **** 0.06
11824 H 71.45589239282253 36.738905358078 103.15090380470846 H 0.0 **** 0.06
11825 H 73.02744925040992 37.5740432645963 103.19893439478403 H 0.0 **** 0.06
11826 C 38.92492888709131 88.00091274755873 28.008364899978176 C 0.0 **** -0.24
11827 H 38.30172253438448 87.30256167655118 27.449481910121534 H 0.0 **** 0.06
11828 H 38.32884398083269 88.86392262932802 28.303656682843524 H 0.0 **** 0.06
11829 H 39.7541423407676 88.32851593389934 27.381853354397037 H 0.0 **** 0.06
11830 H 39.31572683093074 87.5065490891419 28.89821328176282 H 0.0 **** 0.06
11831 C 58.15785154185306 102.07045243472055 87.12249814709344 C 0.0 **** -0.24
11832 H 57.600570434674836 102.98956359019972 87.30439103649587 H 0.0 **** 0.06
11833 H 58.635866442854876 102.12389486041603 86.14333762408927 H 0.0 **** 0.06
11834 H 57.47546359323428 101.22097008832851 87.14816865962291 H 0.0 **** 0.06
11835 H 58.91944797009967 101.94879278562996 87.89267952774918 H 0.0 **** 0.06
11836 C 78.56655459923053 45.221575162451074 73.78267205344702 C 0.0 **** -0.24
11837 H 78.64382275713281 46.01223444337839 74.52936885910083 H 0.0 **** 0.06
11838 H 77.91991095561634 45.5514355815219 72.96914535146067 H 0.0 **** 0.06
11839 H 78.14560547378989 44.3275638219819 74.24215010625448 H 0.0 **** 0.06
11840 H 79.55865062495396 44.99615028159957 73.39085362505074 H 0.0 **** 0.06
11841 C 99.7605239051598 73.62396510539907 104.84261987492879 C 0.0 **** -0.24
11842 H 100.72314668433967 73.8050294593975 104.36261806556638 H 0.0 **** 0.06
11843 H 99.88278548201333 73.66070125286205 105.92497799451182 H 0.0 **** 0.06
11844 H 99.38921378406735 72.64146491206296 104.55156712010672 H 0.0 **** 0.06
11845 H 99.05022265237514 74.3889746148538 104.53087788327008 H 0.0 **** 0.06
11846 C 44.00140934716254 26.79078445529936 32.88124000923446 C 0.0 **** -0.24
11847 H 43.456768152764404 25.93810511284724 32.475723715410766 H 0.0 **** 0.06
11848 H 45.07017976536153 26.57312001581799 32.8784782331268 H 0.0 **** 0.06
11849 H 43.670895714250825 26.980080942325458 33.90242369517105 H 0.0 **** 0.06
11850 H 43.80776470650154 27.67035039251337 32.26665957389392 H 0.0 **** 0.06
11851 C 28.71524740174783 107.32982577796332 73.49258411124816 C 0.0 **** -0.24
11852 H 28.767546767509145 106.8557019131211 72.51258162061379 H 0.0 **** 0.06
11853 H 28.058870310334186 106.74932307343443 74.14172996596426 H 0.0 **** 0.06
11854 H 28.3201609222441 108.34061715094259 73.386772587608 H 0.0 **** 0.06
11855 H 29.712190025469994 107.37361528876002 73.9290017252647 H 0.0 **** 0.06
11856 C 7.02882620629579 47.325042350192206 4.092161246467512 C 0.0 **** -0.24
11857 H 6.081165289885746 47.55076785904393 4.581319039895433 H 0.0 **** 0.06
11858 H 7.792105220043311 48.02038745936244 4.441747991475438 H 0.0 **** 0.06
11859 H 6.91303210886673 47.42497068987021 3.0127152606909533 H 0.0 **** 0.06
11860 H 7.327320615320545 46.30546159561628 4.333264235455047 H 0.0 **** 0.06
11861 C 114.59054482401552 114.0050932326091 89.60247434861674 C 0.0 **** -0.24
11862 H 114.32290904743684 114.21950616394565 90.63671208318232 H 0.0 **** 0.06
11863 H 115.60142698473626 113.59825975637538 89.56563183376042 H 0.0 **** 0.06
11864 H 114.54683217032658 114.92328977931331 89.01720190979347 H 0.0 **** 0.06
11865 H 113.89141770921441 113.27714365968443 89.19068403821024 H 0.0 **** 0.06
11866 C 68.22980972894408 41.45066833934147 46.14930751041305 C 0.0 **** -0.24
11867 H 67.79724231893519 41.810315551189824 47.08370140775523 H 0.0 **** 0.06
11868 H 68.85368650806036 42.23101335964948 45.714083501182984 H 0.0 **** 0.06
11869 H 67.4299372729247 41.1948115539226 45.453902624110015 H 0.0 **** 0.06
11870 H 68.83574841289631 40.56666978814851 46.34756596954958 H 0.0 **** 0.06
11871 C 54.495284336573526 108.20207173928576 63.748409775108996 C 0.0 **** -0.24
11872 H 54.80255451443035 107.88809917461424 62.74988690064788 H 0.0 **** 0.06
11873 H 54.39797419512319 109.28763482884352 63.7736901005041 H 0.0 **** 0.06
11874 H 55.24517689398709 107.88708577251009 64.47390445844331 H 0.0 **** 0.06
11875 H 53.53677850514107 107.74469768500333 63.99340179698885 H 0.0 **** 0.06
11876 C 7.5817281761323585 104.22536887630197 40.645821726290194 C 0.0 **** -0.24
11877 H 8.14848736451782 103.4123318953389 41.09877691714314 H 0.0 **** 0.06
11878 H 8.092903556153857 104.56843463762051 39.746059982977386 H 0.0 **** 0.06
11879 H 7.501060366687284 105.050756829791 41.35473435244222 H 0.0 **** 0.06
11880 H 6.584272699894427 103.87179505327894 40.38496799033345 H 0.0 **** 0.06
11881 C 71.313565810634 48.49884236217916 48.01370353546859 C 0.0 **** -0.24
11882 H 71.57772201348682 49.3584200875039 48.62903689423334 H 0.0 **** 0.06
11883 H 71.16577147174061 47.627092714796326 48.65129427548243 H 0.0 **** 0.06
11884 H 72.11734846746693 48.297670085158046 47.30516155635797 H 0.0 **** 0.06
11885 H 70.39352347387812 48.710459954631844 47.46922890328045 H 0.0 **** 0.06
11886 C 107.81743885044507 115.73405251065697 65.67010358734035 C 0.0 **** -0.24
11887 H 107.76192027728132 115.51782636986201 64.6028503176857 H 0.0 **** 0.06
11888 H 107.52088328320185 114.85070808494658 66.23592245569137 H 0.0 **** 0.06
11889 H 107.14786481972571 116.56062492308183 65.90840010817556 H 0.0 **** 0.06
11890 H 108.83966967858767 116.00742194369593 65.93111474567195 H 0.0 **** 0.06
11891 C 32.32564449013594 8.106818851767763 48.19149133245526 C 0.0 **** -0.24
11892 H 32.72756468646615 7.104775895774587 48.0397031362763 H 0.0 **** 0.06
11893 H 31.54272673669343 8.073271484279196 48.94826926914678 H 0.0 **** 0.06
11894 H 31.910827727672697 8.47786649515496 47.254110261165096 H 0.0 **** 0.06
11895 H 33.12338289884098 8.771445119341763 48.522746362891354 H 0.0 **** 0.06
11896 C 40.419276486658106 114.59295536745013 23.262680160184857 C 0.0 **** -0.24
11897 H 41.017114751062905 115.50116359146138 23.33333238446457 H 0.0 **** 0.06
11898 H 40.18188617371965 114.39472486668063 22.21686844951367 H 0.0 **** 0.06
11899 H 39.49519908370351 114.72030141123471 23.827638177627364 H 0.0 **** 0.06
11900 H 40.982047274340516 113.75421578926176 23.672373351839695 H 0.0 **** 0.06
11901 C 88.28095835421291 64.09624302745488 41.82353625933905 C 0.0 **** -0.24
11902 H 88.76955013429695 63.637750832465116 40.962778667141606 H 0.0 **** 0.06
11903 H 88.19811499921947 63.362912966087094 42.625879434131036 H 0.0 **** 0.06
11904 H 87.28571591436717 64.43664949106662 41.53624455025982 H 0.0 **** 0.06
11905 H 88.87086474732544 64.94642949912773 42.16603000413164 H 0.0 **** 0.06
11906 C 19.276982784190366 20.76750233241492 43.469260295862824 C 0.0 **** -0.24
11907 H 18.440191730551987 20.06946438308401 43.484921914951144 H 0.0 **** 0.06
11908 H 19.04423046713343 21.62744037669563 44.09766502135565 H 0.0 **** 0.06
11909 H 19.45224326834048 21.101068633669684 42.44719828517546 H 0.0 **** 0.06
11910 H 20.170349625485898 20.271343124189997 43.84808118092684 H 0.0 **** 0.06
11911 C 94.22615376500724 108.13872119708083 75.87602855676097 C 0.0 **** -0.24
11912 H 95.07082391899604 108.59892168550124 76.3885979555313 H 0.0 **** 0.06
11913 H 93.56836592064968 107.6696434920708 76.60891866569774 H 0.0 **** 0.06
11914 H 94.59208770966458 107.38380641652418 75.1807124207814 H 0.0 **** 0.06
11915 H 93.67437004308903 108.90137146122669 75.32750709963297 H 0.0 **** 0.06
11916 C 84.28084433330474 11.337152237822835 68.62827253811176 C 0.0 **** -0.24
11917 H 84.39687645612366 11.169512705920567 67.55727295052635 H 0.0 **** 0.06
11918 H 84.28854536028308 12.407509678117862 68.83164692315596 H 0.0 **** 0.06
11919 H 85.10288554840326 10.85977243418236 69.16206120853242 H 0.0 **** 0.06
11920 H 83.33500221339386 10.910420573228691 68.96234040105213 H 0.0 **** 0.06
11921 C 84.17252898827775 102.70501909878124 29.85218822526525 C 0.0 **** -0.24
11922 H 83.46924990086802 103.41661094480838 29.419503434168263 H 0.0 **** 0.06
11923 H 85.19202005064017 103.04319869927804 29.665841490374277 H 0.0 **** 0.06
11924 H 84.02538961291236 101.7264683893955 29.39460752711979 H 0.0 **** 0.06
11925 H 84.0030209824256 102.63431487603583 30.926668802482453 H 0.0 **** 0.06
11926 C 46.18017135283549 68.19323177501622 102.00947929503565 C 0.0 **** -0.24
11927 H 45.446044509557865 67.60871929089689 102.5647850998533 H 0.0 **** 0.06
11928 H 45.89663650605445 69.24586954527028 102.02933655911815 H 0.0 **** 0.06
11929 H 46.21707519732212 67.84492157151938 100.97758461648506 H 0.0 **** 0.06
11930 H 47.16159103786781 68.07336551605134 102.46961090937049 H 0.0 **** 0.06
11931 C 22.191631999324414 28.115368408390452 107.04824450117815 C 0.0 **** -0.24
11932 H 22.26398753365646 29.172777522323912 106.79280913823115 H 0.0 **** 0.06
11933 H 21.786911088927184 27.564494564157968 106.1985995126393 H 0.0 **** 0.06
11934 H 21.53417993645536 27.993833657384982 107.90804420996557 H 0.0 **** 0.06
11935 H 23.182857173114257 27.732147224454764 107.29072282526545 H 0.0 **** 0.06
11936 C 106.06761820800354 13.74071016846446 6.637037282899575 C 0.0 **** -0.24
11937 H 107.08102917999679 13.899673741429467 6.268085585298461 H 0.0 **** 0.06
11938 H 105.80316584577433 12.688533147068284 6.529347698163596 H 0.0 **** 0.06
11939 H 105.37166014327984 14.35142097077295 6.062454646297766 H 0.0 **** 0.06
11940 H 106.01578262967135 14.023201980266577 7.6890629804304 H 0.0 **** 0.06
11941 C 38.389669724571064 55.78667049937658 43.37651684159118 C 0.0 **** -0.24
11942 H 38.75520803482715 55.43816943970982 42.41054773599046 H 0.0 **** 0.06
11943 H 39.21080419025611 56.24058605310316 43.93254965666594 H 0.0 **** 0.06
11944 H 37.99195750568039 54.942879151700346 43.93974562804863 H 0.0 **** 0.06
11945 H 37.603534813552244 56.524510242872765 43.22237126361 H 0.0 **** 0.06
11946 C 43.65525247359358 67.30832706324851 28.78953877306651 C 0.0 **** -0.24
11947 H 43.11202180806464 66.36371756798833 28.754354553503447 H 0.0 **** 0.06
11948 H 44.70551286698168 67.11386905879428 29.008149788187524 H 0.0 **** 0.06
11949 H 43.23151757873683 67.94140821377196 29.568717516020854 H 0.0 **** 0.06
11950 H 43.57029155263234 67.81171814942687 27.826233713697377 H 0.0 **** 0.06
11951 C 100.60276092942678 31.475390956055264 84.12162185934207 C 0.0 **** -0.24
11952 H 100.77526753594273 30.88524912204852 83.22128932617616 H 0.0 **** 0.06
11953 H 99.74492707328989 31.071090175311866 84.66101840389342 H 0.0 **** 0.06
11954 H 100.40347727659628 32.510377604210476 83.84468289533964 H 0.0 **** 0.06
11955 H 101.48565253739736 31.432441601892634 84.75837474816291 H 0.0 **** 0.06
11956 C 91.36889087566391 21.480084421711695 33.34650665067051 C 0.0 **** -0.24
11957 H 90.50485364967619 22.010145928791644 32.94521367658455 H 0.0 **** 0.06
11958 H 92.24137951804795 22.13202097368014 33.317065189450744 H 0.0 **** 0.06
11959 H 91.55977186076734 20.590226753509796 32.74606983132106 H 0.0 **** 0.06
11960 H 91.1678679645459 21.186627892906756 34.37703740363584 H 0.0 **** 0.06
11961 C 27.40973217875117 48.19989606215347 44.06175514303857 C 0.0 **** -0.24
11962 H 27.325101713093886 47.1890932995272 43.66238435123603 H 0.0 **** 0.06
11963 H 27.579964075347164 48.8997852405748 43.243394697894985 H 0.0 **** 0.06
11964 H 28.24677632447586 48.24576450227933 44.758774343443235 H 0.0 **** 0.06
11965 H 26.489014325600863 48.463733059645435 44.58051147621774 H 0.0 **** 0.06
11966 C 106.09174956442422 86.57194439463865 15.995293202225383 C 0.0 **** -0.24
11967 H 105.48462412921042 87.47088051932263 15.884450280423096 H 0.0 **** 0.06
11968 H 106.35393385446301 86.18790889383797 15.00987469256819 H 0.0 **** 0.06
11969 H 105.5264953637487 85.81736074603839 16.54166278564952 H 0.0 **** 0.06
11970 H 107.00140652274176 86.81366286985718 16.545938286233394 H 0.0 **** 0.06
11971 C 42.92538649108445 17.109364247562343 4.026339816266059 C 0.0 **** -0.24
11972 H 42.45156650180536 16.96111112558605 4.997051009854772 H 0.0 **** 0.06
11973 H 42.2761952692029 16.719776466169648 3.242714506361949 H 0.0 **** 0.06
11974 H 43.87939571316633 16.58163075233096 4.004490930406433 H 0.0 **** 0.06
11975 H 43.09453600586056 18.173449295718477 3.8643831858943827 H 0.0 **** 0.06
11976 C 98.70615478450415 41.593128146402776 14.524994051538691 C 0.0 **** -0.24
11977 H 99.74339037373842 41.26790203048742 14.443957853268998 H 0.0 **** 0.06
11978 H 98.51078559628382 41.93320533991569 15.542608914081523 H 0.0 **** 0.06
11979 H 98.04477818096586 40.75996523196477 14.287871543964314 H 0.0 **** 0.06
11980 H 98.52559893538698 42.41116979216997 13.826924526618182 H 0.0 **** 0.06
11981 C 95.86348444109926 41.88316575224512 49.594488649263184 C 0.0 **** -0.24
11982 H 96.68923399848309 42.304525213340185 49.02009984638647 H 0.0 **** 0.06
11983 H 95.95447741700318 42.18654600312171 50.63746000849906 H 0.0 **** 0.06
11984 H 95.8939934871203 40.795377075261364 49.52851461718541 H 0.0 **** 0.06
11985 H 94.91790004148562 42.2444777363952 49.19142873765139 H 0.0 **** 0.06
11986 C 113.21658256151244 13.572820866358313 86.62442511879075 C 0.0 **** -0.24
11987 H 112.18367081766957 13.73041316966345 86.93595455357625 H 0.0 **** 0.06
11988 H 113.67870217955931 12.821906634662525 87.26534230143965 H 0.0 **** 0.06
11989 H 113.7678055526855 14.50905043932886 86.70614962593345 H 0.0 **** 0.06
11990 H 113.23516144615411 13.22862085879342 85.58966291598118 H 0.0 **** 0.06
11991 C 4.493913702734341 31.21207926374956 37.89971894711131 C 0.0 **** -0.24
11992 H 4.505749174630852 30.324779445165802 38.532180385058524 H 0.0 **** 0.06
11993 H 5.002765183624113 30.994835144353715 36.96070259780461 H 0.0 **** 0.06
11994 H 5.004044186220405 32.0293857722433 38.40989983479035 H 0.0 **** 0.06
11995 H 3.461204721368782 31.498188344632666 37.69647919728061 H 0.0 **** 0.06
11996 C 21.10808678246521 46.94462262704193 51.530841615219856 C 0.0 **** -0.24
11997 H 21.53710056721212 46.857976361875245 52.52957291231078 H 0.0 **** 0.06
11998 H 20.56373865627823 46.03171749203907 51.289914517407794 H 0.0 **** 0.06
11999 H 21.906352904783102 47.09565092104736 50.804250121210856 H 0.0 **** 0.06
12000 H 20.425463339883613 47.79446812134432 51.50140556450748 H 0.0 **** 0.06
12001 C 61.260424430284814 102.49002046297448 96.91706256857924 C 0.0 **** -0.24
12002 H 62.1178068215504 101.8547669015912 96.6964931769146 H 0.0 **** 0.06
12003 H 61.55109659440001 103.25404832602317 97.6392763661291 H 0.0 **** 0.06
12004 H 60.45583923733781 101.88354616474334 97.33200365343981 H 0.0 **** 0.06
12005 H 60.918139866480004 102.96930246421266 95.99903006207703 H 0.0 **** 0.06
12006 C 9.957058628459947 17.2587884816555 18.205503051560044 C 0.0 **** -0.24
12007 H 9.27059086099979 18.023891121971076 17.843009598452156 H 0.0 **** 0.06
12008 H 10.809363761719283 17.187896283565976 17.528913165481683 H 0.0 **** 0.06
12009 H 9.443741680950325 16.298770174027908 18.24487351810498 H 0.0 **** 0.06
12010 H 10.305615827290751 17.52639905402839 19.20307361220827 H 0.0 **** 0.06
12011 C 94.73134596625238 91.39429162616298 23.97339470850266 C 0.0 **** -0.24
12012 H 94.98461446745176 90.90146237050152 23.034946562408955 H 0.0 **** 0.06
12013 H 95.42166071018137 92.21898393772216 24.148656392748954 H 0.0 **** 0.06
12014 H 94.80684545448636 90.67689357857245 24.791233009291325 H 0.0 **** 0.06
12015 H 93.71272595489654 91.77767032799699 23.91911244594169 H 0.0 **** 0.06
12016 C 19.90658552110287 87.76978861067556 109.42495351796956 C 0.0 **** -0.24
12017 H 20.981104072017715 87.63670163640452 109.55116485852605 H 0.0 **** 0.06
12018 H 19.38037324972578 87.26451376465684 110.23509335391581 H 0.0 **** 0.06
12019 H 19.597831067959675 87.34403720211458 108.47017344624534 H 0.0 **** 0.06
12020 H 19.667788698138423 88.83240059029879 109.44296242371156 H 0.0 **** 0.06
12021 C 14.409465933928686 68.23501461422345 24.70885016200924 C 0.0 **** -0.24
12022 H 14.975960720456829 68.94780006089697 24.10913427222829 H 0.0 **** 0.06
12023 H 14.706155494744841 67.2203019946824 24.44141377680741 H 0.0 **** 0.06
12024 H 13.344458425760681 68.3654832139891 24.5172451022367 H 0.0 **** 0.06
12025 H 14.612286434584952 68.40701365960133 25.765960247413105 H 0.0 **** 0.06
12026 C 80.80565728949233 77.14939191042724 110.58904525674501 C 0.0 **** -0.24
12027 H 80.63189904929035 76.13834631601787 110.95733920304062 H 0.0 **** 0.06
12028 H 80.88105049451381 77.13189003659475 109.50165428720481 H 0.0 **** 0.06
12029 H 81.73353480001536 77.53485643029983 111.0111186624523 H 0.0 **** 0.06
12030 H 79.97693308368909 77.79218376474219 110.8866110479139 H 0.0 **** 0.06
12031 C 88.95957268470892 104.75539229197318 107.95709466372281 C 0.0 **** -0.24
12032 H 88.33782772801896 104.62560690706266 108.84243045721712 H 0.0 **** 0.06
12033 H 89.33497584435872 103.78499173561067 107.63063510517742 H 0.0 **** 0.06
12034 H 89.79878235905824 105.40874895996802 108.19512979617099 H 0.0 **** 0.06
12035 H 88.36605086840117 105.20285943889695 107.15910366920377 H 0.0 **** 0.06
12036 C 2.5851155532302244 6.602164559586951 47.587459344030805 C 0.0 **** -0.24
12037 H 3.0081992717332895 6.933573659325001 46.63938038836906 H 0.0 **** 0.06
12038 H 2.9150213308514026 5.584142101627673 47.79639486105171 H 0.0 **** 0.06
12039 H 1.4972445576612472 6.6266826273388535 47.52861987825466 H 0.0 **** 0.06
12040 H 2.9213944732664885 7.264429302044443 48.38557868684859 H 0.0 **** 0.06
12041 C 62.135959102881046 61.73811892676903 77.61770326352014 C 0.0 **** -0.24
12042 H 61.8074082451254 61.18449343660588 78.49635029826901 H 0.0 **** 0.06
12043 H 62.604748204574236 61.05367696391694 76.91055013838606 H 0.0 **** 0.06
12044 H 62.854003786998305 62.50108741178616 77.91723028754082 H 0.0 **** 0.06
12045 H 61.276345837497615 62.21471023271636 77.1466243860699 H 0.0 **** 0.06
12046 C 53.477906845591576 101.91687722469328 0.13975194544293856 C 0.0 **** -0.24
12047 H 53.52639516059992 101.09538767056677 0.8543933512323889 H 0.0 **** 0.06
12048 H 54.48654465113128 102.26019014845787 -0.08879023968901834 H 0.0 **** 0.06
12049 H 52.903160251391625 102.73755294204949 0.5698999631552084 H 0.0 **** 0.06
12050 H 52.993501898053296 101.57515323598483 -0.7753563316359191 H 0.0 **** 0.06
12051 C 11.050406535583438 84.65619837467779 99.53977189585338 C 0.0 **** -0.24
12052 H 10.086665891757225 84.16235438194457 99.65734972297567 H 0.0 **** 0.06
12053 H 11.841943657949447 83.90739738774442 99.51296496603698 H 0.0 **** 0.06
12054 H 11.217237842233338 85.33048548194432 100.3797711611936 H 0.0 **** 0.06
12055 H 11.056392135258388 85.22582151082935 98.61001318623781 H 0.0 **** 0.06
12056 C 83.14984768077838 111.60345608194132 24.825833230217086 C 0.0 **** -0.24
12057 H 82.15781935780859 111.808834123787 25.22755601591183 H 0.0 **** 0.06
12058 H 83.4968378287945 110.63699857992239 25.19098973070726 H 0.0 **** 0.06
12059 H 83.84051686424588 112.38343527018827 25.148412174939068 H 0.0 **** 0.06
12060 H 83.10453598876325 111.58524130047365 23.73702993593443 H 0.0 **** 0.06
12061 C 50.10229058815548 65.41343295651191 91.38562899695756 C 0.0 **** -0.24
12062 H 50.08165629645944 64.96380363739743 92.37819397571258 H 0.0 **** 0.06
12063 H 49.32896649230122 64.95832932539288 90.76485913748616 H 0.0 **** 0.06
12064 H 51.078999705681326 65.2458907271189 90.93126408125244 H 0.0 **** 0.06
12065 H 49.918334894883 66.48491768217072 91.4691597390414 H 0.0 **** 0.06
12066 C 60.587984082218895 69.91882480186389 12.602228583577073 C 0.0 **** -0.24
12067 H 61.51225435825012 69.34863085479965 12.700803079237573 H 0.0 **** 0.06
12068 H 60.82108940035607 70.93616113878863 12.288041954446669 H 0.0 **** 0.06
12069 H 60.071567576254296 69.94317143920706 13.561454181325644 H 0.0 **** 0.06
12070 H 59.94808975961962 69.44596451326514 11.857205792968728 H 0.0 **** 0.06
12071 C 94.85238310843859 15.438484445847877 115.44347985092402 C 0.0 **** -0.24
12072 H 95.01035170801188 14.75554355823948 116.27722449298487 H 0.0 **** 0.06
12073 H 95.55799041685486 16.266657225281392 115.51326349770187 H 0.0 **** 0.06
12074 H 93.83307130017474 15.824083566053133 115.47726374082153 H 0.0 **** 0.06
12075 H 95.00814741024911 14.906742483633735 114.50389397381542 H 0.0 **** 0.06
12076 C 51.83834471811207 94.91370665515984 3.1812023151375683 C 0.0 **** -0.24
12077 H 50.80783205514683 94.70482181787466 3.4674352572377813 H 0.0 **** 0.06
12078 H 52.49993351092141 94.69512409010301 4.020457689680683 H 0.0 **** 0.06
12079 H 51.933294221034544 95.9636549279621 2.905686933146029 H 0.0 **** 0.06
12080 H 52.112509599321356 94.28883278716546 2.330741929566841 H 0.0 **** 0.06
12081 C 9.572904612382256 6.895139753398823 102.05871133920996 C 0.0 **** -0.24
12082 H 10.084454348055289 7.202204420631119 102.97082794486278 H 0.0 **** 0.06
12083 H 10.310844808281491 6.666232398989052 101.28798284750475 H 0.0 **** 0.06
12084 H 8.92726442290266 7.703697228882206 101.7140373143453 H 0.0 **** 0.06
12085 H 8.970268879425682 6.009586672994018 102.26052181768843 H 0.0 **** 0.06
12086 C 36.12943941739974 31.30213377666425 43.1104876804896 C 0.0 **** -0.24
12087 H 36.94880498654504 30.834693389912587 43.6571879085846 H 0.0 **** 0.06
12088 H 35.53440266239153 30.533025703121126 42.61819754591005 H 0.0 **** 0.06
12089 H 36.53382766772387 31.98379871203231 42.361944671443894 H 0.0 **** 0.06
12090 H 35.499973418480465 31.858441888671848 43.806467211843085 H 0.0 **** 0.06
12091 C 65.48014696799589 1.9416272356409223 85.28657699923076 C 0.0 **** -0.24
12092 H 64.537992039801 2.471910451317555 85.1474462589402 H 0.0 **** 0.06
12093 H 66.28735778044233 2.506431005472635 84.81876396379445 H 0.0 **** 0.06
12094 H 65.41297684245242 0.9559537825890487 84.82698095240535 H 0.0 **** 0.06
12095 H 65.68262820425718 1.8333280272302659 86.3523270684432 H 0.0 **** 0.06
12096 C 81.1476435282068 101.77601617357021 27.197665715948688 C 0.0 **** -0.24
12097 H 80.28684551811978 101.41202848781018 27.757715935582112 H 0.0 **** 0.06
12098 H 82.05573732220137 101.31552094136265 27.586291930752978 H 0.0 **** 0.06
12099 H 81.21641828477607 102.85926959589023 27.302487802832815 H 0.0 **** 0.06
12100 H 81.03133711440182 101.51940791552215 26.145293869320568 H 0.0 **** 0.06
12101 C 89.31310471806692 95.98803074367149 13.00892543209335 C 0.0 **** -0.24
12102 H 89.78483147524082 96.8209511059336 13.529584676792553 H 0.0 **** 0.06
12103 H 88.23288336144219 96.03543521299582 13.152592706284821 H 0.0 **** 0.06
12104 H 89.69210811568838 95.04746614734161 13.409058205588138 H 0.0 **** 0.06
12105 H 89.54108705854848 96.04968499769836 11.945316340748931 H 0.0 **** 0.06
12106 C 71.19078916667007 111.69804761314658 26.224104904653956 C 0.0 **** -0.24
12107 H 71.62241150720143 110.79158211349355 26.64842318464185 H 0.0 **** 0.06
12108 H 71.44608413559894 111.76084402108508 25.164898215187193 H 0.0 **** 0.06
12109 H 71.58848827758214 112.56932146096341 26.745985102527086 H 0.0 **** 0.06
12110 H 70.1067940627442 111.67104162310024 26.335992599053817 H 0.0 **** 0.06
12111 C 13.23374676650468 63.195864322884674 47.68539066632724 C 0.0 **** -0.24
12112 H 12.3230612970425 63.75785130212745 47.47673976244744 H 0.0 **** 0.06
12113 H 14.012973135644017 63.88098522780061 48.023114384460314 H 0.0 **** 0.06
12114 H 13.564193933753074 62.68817185203321 46.77950240106054 H 0.0 **** 0.06
12115 H 13.03527400267393 62.45922833141334 48.46321099979008 H 0.0 **** 0.06
12116 C 5.451060489008611 43.600715207830255 13.33871298123027 C 0.0 **** -0.24
12117 H 4.591955765094326 43.45770989792911 12.68333362170123 H 0.0 **** 0.06
12118 H 6.359000527095546 43.666459995216655 12.738942957551505 H 0.0 **** 0.06
12119 H 5.527943308888865 42.75724562737098 14.024692312240383 H 0.0 **** 0.06
12120 H 5.324001812060899 44.52101125423899 13.90776198232302 H 0.0 **** 0.06
12121 C 90.17256064492322 34.598789609669765 1.7490637568786216 C 0.0 **** -0.24
12122 H 89.30567033795887 34.984436865707494 2.2839664056972424 H 0.0 **** 0.06
12123 H 89.96752007610394 34.59805673902798 0.6779650452978014 H 0.0 **** 0.06
12124 H 90.3813953503464 33.5811800575205 2.0804298191039194 H 0.0 **** 0.06
12125 H 91.0361235154088 35.232064818940266 1.9532260759542837 H 0.0 **** 0.06
12126 C 3.580975625723852 38.43111883178966 33.391967914033955 C 0.0 **** -0.24
12127 H 3.4338733386021545 39.20419669401457 32.637915477037666 H 0.0 **** 0.06
12128 H 4.089587598026668 38.85883143826595 34.25665537814939 H 0.0 **** 0.06
12129 H 4.18738519377149 37.62771005771151 32.973968725812426 H 0.0 **** 0.06
12130 H 2.6135817892646003 38.03454798326385 33.699074155213054 H 0.0 **** 0.06
12131 C 76.16010506488874 14.871416854800827 19.845696661894976 C 0.0 **** -0.24
12132 H 76.74830367332993 15.359205540751674 20.621817171417746 H 0.0 **** 0.06
12133 H 75.48105349737352 14.150055560660576 20.303231972164042 H 0.0 **** 0.06
12134 H 76.82704674664603 14.354944296653827 19.155384817160012 H 0.0 **** 0.06
12135 H 75.58303971199939 15.61947929232224 19.302013181025075 H 0.0 **** 0.06
12136 C 87.14633114816576 54.11787198124722 41.30326296202482 C 0.0 **** -0.24
12137 H 87.91234097290413 54.19515226703618 40.530942870616315 H 0.0 **** 0.06
12138 H 87.51052277631271 54.574262173288844 42.22327381076364 H 0.0 **** 0.06
12139 H 86.91792116732012 53.06729010918275 41.48294092154217 H 0.0 **** 0.06
12140 H 86.2445683677227 54.634279909340904 40.972936845915065 H 0.0 **** 0.06
12141 C 12.097887222343612 51.47256632985824 10.549376096560959 C 0.0 **** -0.24
12142 H 11.074394647444151 51.73531710768253 10.816466944785713 H 0.0 **** 0.06
12143 H 12.511935985646112 50.80752143177497 11.307175840815216 H 0.0 **** 0.06
12144 H 12.701542626227276 52.378524141596756 10.49084253091291 H 0.0 **** 0.06
12145 H 12.102422993693317 50.970656678870654 9.581855203215135 H 0.0 **** 0.06
12146 C 5.499940458298738 14.643025736164276 84.78119083398832 C 0.0 **** -0.24
12147 H 6.09345106981192 15.542634087502307 84.94411266139008 H 0.0 **** 0.06
12148 H 5.766962563243595 14.200327705098601 83.8210792470287 H 0.0 **** 0.06
12149 H 4.441095612304821 14.901415129845248 84.78142949123605 H 0.0 **** 0.06
12150 H 5.699572753839703 13.927058194847376 85.57948781734069 H 0.0 **** 0.06
12151 C 7.729922027804491 4.252550865740773 59.733374692630804 C 0.0 **** -0.24
12152 H 8.582215013125591 3.7050142123220127 60.13708609434988 H 0.0 **** 0.06
12153 H 7.4470365715204565 5.045828353941317 60.426291192572364 H 0.0 **** 0.06
12154 H 6.890757658672044 3.570072214786336 59.59897750907146 H 0.0 **** 0.06
12155 H 8.001459155901259 4.689203938057261 58.77205150996082 H 0.0 **** 0.06
12156 C 3.736061066655907 34.94152986580957 10.815383504207986 C 0.0 **** -0.24
12157 H 2.9616559958762423 34.26034954599609 10.464038006984282 H 0.0 **** 0.06
12158 H 4.30726760843919 35.31246531863954 9.963251684358113 H 0.0 **** 0.06
12159 H 4.402636835663031 34.41354704116026 11.497397024979392 H 0.0 **** 0.06
12160 H 3.273072411812336 35.78025883475431 11.334703004136756 H 0.0 **** 0.06
12161 C 115.5157740102166 4.6683829075095815 34.32301027250785 C 0.0 **** -0.24
12162 H 116.09729309241419 3.9906483670459068 33.69854252582596 H 0.0 **** 0.06
12163 H 114.52199522617862 4.249616401902529 34.48521989890039 H 0.0 **** 0.06
12164 H 115.42600744299058 5.633834098040168 33.824753778393685 H 0.0 **** 0.06
12165 H 116.01622325023405 4.799948168995414 35.28172275560003 H 0.0 **** 0.06
12166 C 11.365074523225605 22.283970513920565 34.57353939716706 C 0.0 **** -0.24
12167 H 11.266269541450601 21.29180566369658 34.132753667824375 H 0.0 **** 0.06
12168 H 11.888871301562862 22.208069903415094 35.526650414621784 H 0.0 **** 0.06
12169 H 10.37516901834569 22.71046114875594 34.73440692100754 H 0.0 **** 0.06
12170 H 11.931795378547225 22.925934348137133 33.897983662450144 H 0.0 **** 0.06
12171 C 47.69963120810178 11.052673863487858 20.659299196350638 C 0.0 **** -0.24
12172 H 48.02734746702106 10.593844567756097 19.725775035799774 H 0.0 **** 0.06
12173 H 46.87747731654923 11.739045469147925 20.457154346108442 H 0.0 **** 0.06
12174 H 48.530155900420255 11.599595135035415 21.10454784329916 H 0.0 **** 0.06
12175 H 47.36552418224937 10.276665634188799 21.34755296041565 H 0.0 **** 0.06
12176 C 15.928122008362465 53.35815941753012 68.69703758819638 C 0.0 **** -0.24
12177 H 14.92074520014559 53.08439414401754 68.38355219586047 H 0.0 **** 0.06
12178 H 15.888930067535895 54.271767619242716 69.28973950827292 H 0.0 **** 0.06
12179 H 16.55058709624518 53.5212541431114 67.81704105461556 H 0.0 **** 0.06
12180 H 16.352250318767645 52.55324913101739 69.29814674441249 H 0.0 **** 0.06
12181 C 66.83014726334252 87.78071014369436 98.46433885724849 C 0.0 **** -0.24
12182 H 66.77193404711602 86.74039261347558 98.78397645782533 H 0.0 **** 0.06
12183 H 65.94703986373088 88.02910990957659 97.87408167753142 H 0.0 **** 0.06
12184 H 67.72480061699406 87.92489526736371 97.85890466537612 H 0.0 **** 0.06
12185 H 66.87605208880439 88.42725250337897 99.34043774086334 H 0.0 **** 0.06
12186 C 78.08948449277074 17.101958607105388 37.400357393847685 C 0.0 **** -0.24
12187 H 78.9107314727367 17.689245283812312 37.81277027827801 H 0.0 **** 0.06
12188 H 77.3223827357798 17.773355975019626 37.0141371988784 H 0.0 **** 0.06
12189 H 77.66326377201207 16.47389414138351 38.18223362552499 H 0.0 **** 0.06
12190 H 78.46393661854052 16.473832938345936 36.59192414596713 H 0.0 **** 0.06
12191 C 28.911208037536284 67.03553057650569 46.99903479353321 C 0.0 **** -0.24
12192 H 29.707946922045835 67.7013418799574 46.66737229647548 H 0.0 **** 0.06
12193 H 27.99281769177739 67.6064726730404 47.13076471989655 H 0.0 **** 0.06
12194 H 29.193815028122827 66.57618700879073 47.946317927464264 H 0.0 **** 0.06
12195 H 28.75239562120686 66.25838303711839 46.25110237688716 H 0.0 **** 0.06
12196 C 89.59935352590978 17.391258462014044 110.8671385920607 C 0.0 **** -0.24
12197 H 88.64902464826385 16.891164432753172 110.68287115728907 H 0.0 **** 0.06
12198 H 90.41852008112146 16.700907732017907 110.66513959036058 H 0.0 **** 0.06
12199 H 89.64463482825256 17.712546891495283 111.90837486662336 H 0.0 **** 0.06
12200 H 89.68508673012462 18.259668396750097 110.2150707458149 H 0.0 **** 0.06
12201 C 37.26383019520529 66.38298152408544 109.01882041961207 C 0.0 **** -0.24
12202 H 37.180809048281105 65.48703329686458 109.63449228803017 H 0.0 **** 0.06
12203 H 36.60670645755266 66.29035150260341 108.15339295415356 H 0.0 **** 0.06
12204 H 38.29473706758614 66.49842473328164 108.68267982995971 H 0.0 **** 0.06
12205 H 36.97300987918726 67.25528810396008 109.60527366044873 H 0.0 **** 0.06
12206 C 6.679743421368457 52.62940910001763 45.1648390750712 C 0.0 **** -0.24
12207 H 6.030406663397315 51.95211313349557 44.60956208417741 H 0.0 **** 0.06
12208 H 6.076562119956051 53.40948620818772 45.63119588660737 H 0.0 **** 0.06
12209 H 7.398058434930533 53.08406531763861 44.48353829823134 H 0.0 **** 0.06
12210 H 7.211776499698701 52.07207283566555 45.935590413408136 H 0.0 **** 0.06
12211 C 111.50720519010588 100.03253128433425 10.474835452751648 C 0.0 **** -0.24
12212 H 111.49410892168126 101.1158715997218 10.593641143423156 H 0.0 **** 0.06
12213 H 111.04795423290287 99.56674933191891 11.346935391657084 H 0.0 **** 0.06
12214 H 112.53807121100246 99.69078109776666 10.380545335572265 H 0.0 **** 0.06
12215 H 110.95017094396616 99.75849955375054 9.579844996975908 H 0.0 **** 0.06
12216 C 30.853207990592352 106.3160656851159 62.47437898235091 C 0.0 **** -0.24
12217 H 31.1068353833068 105.5795800508309 61.7121909572474 H 0.0 **** 0.06
12218 H 31.510813868725023 107.17962249571409 62.37752513884851 H 0.0 **** 0.06
12219 H 30.97703500778821 105.87314851615997 63.46268046150135 H 0.0 **** 0.06
12220 H 29.8170240511393 106.63105290716585 62.34512522852887 H 0.0 **** 0.06
12221 C 65.27059140364578 20.802607557221677 92.91529431749697 C 0.0 **** -0.24
12222 H 65.49012354909009 20.240230311191823 92.00752174258247 H 0.0 **** 0.06
12223 H 66.19984903698608 21.011972647045752 93.44569614345852 H 0.0 **** 0.06
12224 H 64.61093901456569 20.216523513295556 93.5553675836752 H 0.0 **** 0.06
12225 H 64.78234389331591 21.74064073901755 92.65231212110007 H 0.0 **** 0.06
12226 C 99.44049943233313 76.91051660693542 91.23911629573223 C 0.0 **** -0.24
12227 H 99.39677565460511 77.99958607805442 91.22373841618919 H 0.0 **** 0.06
12228 H 100.27353898644833 76.57130939238046 90.62360097659108 H 0.0 **** 0.06
12229 H 98.50803282717317 76.50415347824938 90.84639548548915 H 0.0 **** 0.06
12230 H 99.58152392515365 76.56700248698665 92.26342222587299 H 0.0 **** 0.06
12231 C 78.83800782406018 89.11437281676751 107.34557325591351 C 0.0 **** -0.24
12232 H 77.84982390124827 88.92674090310499 107.7678438600864 H 0.0 **** 0.06
12233 H 79.34047600209118 88.16422071618354 107.16187970306889 H 0.0 **** 0.06
12234 H 79.42509862001339 89.70683733075776 108.04786578520871 H 0.0 **** 0.06
12235 H 78.73397659508299 89.65914095444197 106.40707885064779 H 0.0 **** 0.06
12236 C 19.67796017713971 6.367767050975161 3.8306809078673894 C 0.0 **** -0.24
12237 H 19.046377308573653 6.253834533300235 2.9497580938201082 H 0.0 **** 0.06
12238 H 19.80618744989573 7.428343685929022 4.050147528462517 H 0.0 **** 0.06
12239 H 20.651571097164265 5.915650117388466 3.6408372247236684 H 0.0 **** 0.06
12240 H 19.207243167659158 5.874921480918545 4.680581032126057 H 0.0 **** 0.06
12241 C 11.53584423144116 37.90289889105073 45.8388492111869 C 0.0 **** -0.24
12242 H 12.103082164375309 37.890472137653774 46.77018069083374 H 0.0 **** 0.06
12243 H 12.001627081035195 38.59764202659243 45.14043756548213 H 0.0 **** 0.06
12244 H 10.513059398231519 38.22089485435254 46.04234450810054 H 0.0 **** 0.06
12245 H 11.526001640866582 36.90238903745356 45.40614986497218 H 0.0 **** 0.06
12246 C 113.06286710294833 35.27719998756515 44.487572846140466 C 0.0 **** -0.24
12247 H 113.36729338222571 34.494322937619124 45.1825733838605 H 0.0 **** 0.06
12248 H 113.94209484030026 35.67654017798958 43.9824188803889 H 0.0 **** 0.06
12249 H 112.5644903522157 36.07622564206537 45.0377139644359 H 0.0 **** 0.06
12250 H 112.37629601425076 34.86146818027333 43.74965090241156 H 0.0 **** 0.06
12251 C 18.052405480969753 93.52099406215808 31.341709459491284 C 0.0 **** -0.24
12252 H 18.24565643126752 94.21076911516451 30.51996922250609 H 0.0 **** 0.06
12253 H 18.64274650835131 93.8175579426062 32.20973652927705 H 0.0 **** 0.06
12254 H 18.32984474027006 92.51099001267276 31.040631711580374 H 0.0 **** 0.06
12255 H 16.992781866970034 93.54639571992738 31.59644288853795 H 0.0 **** 0.06
12256 C 17.09194683941874 109.49454938222345 77.08840322917953 C 0.0 **** -0.24
12257 H 16.08415052730612 109.4703193730927 76.67352485064004 H 0.0 **** 0.06
12258 H 17.69089536341471 110.22673296677272 76.54679781745972 H 0.0 **** 0.06
12259 H 17.548320774982415 108.50961834140298 76.99256900507044 H 0.0 **** 0.06
12260 H 17.043859246154256 109.77184484409543 78.14197972301267 H 0.0 **** 0.06
12261 C 3.737706707381008 91.78032137832788 20.24062031175103 C 0.0 **** -0.24
12262 H 3.624384257334455 91.44409543032104 21.271355340659994 H 0.0 **** 0.06
12263 H 4.530344585736046 92.52731952921087 20.187728289639196 H 0.0 **** 0.06
12264 H 2.801260123793881 92.22004592697728 19.89621834162864 H 0.0 **** 0.06
12265 H 3.9945548096741987 90.93151366134937 19.606920018653682 H 0.0 **** 0.06
12266 C 114.6720560836257 84.11876254974203 88.60092242381697 C 0.0 **** -0.24
12267 H 114.16765684026453 83.26527073122685 89.05435013986863 H 0.0 **** 0.06
12268 H 115.40025985402829 84.52468919613074 89.30213230957975 H 0.0 **** 0.06
12269 H 113.93602793198471 84.8854570227449 88.35542130908414 H 0.0 **** 0.06
12270 H 115.18058303784679 83.79934386725046 87.69128425709258 H 0.0 **** 0.06
12271 C 58.13480877853971 51.58887141784123 81.6895449131867 C 0.0 **** -0.24
12272 H 58.06370181539154 52.50237233998109 81.09977938591959 H 0.0 **** 0.06
12273 H 58.95726367415398 50.979009569628204 81.31635059588552 H 0.0 **** 0.06
12274 H 57.20174252411604 51.030949973960304 81.60851651408177 H 0.0 **** 0.06
12275 H 58.31627502958173 51.84446471041787 82.73400012137199 H 0.0 **** 0.06
12276 C 91.84502938257447 113.12883538705941 19.705487176446923 C 0.0 **** -0.24
12277 H 92.75256717212744 113.71791176543972 19.840312157544133 H 0.0 **** 0.06
12278 H 91.06034064561948 113.51586275953863 20.355637128339197 H 0.0 **** 0.06
12279 H 92.04646863439507 112.08756885505164 19.957875398533474 H 0.0 **** 0.06
12280 H 91.52184304643743 113.1950145118249 18.66646480593306 H 0.0 **** 0.06
12281 C 22.12565753002785 102.15642323876177 36.366894993215794 C 0.0 **** -0.24
12282 H 22.47859113273958 101.75628354389578 35.416070252721624 H 0.0 **** 0.06
12283 H 21.800758889813068 101.33601145759877 37.00723081839158 H 0.0 **** 0.06
12284 H 21.28927943472364 102.83135599686437 36.188524765129614 H 0.0 **** 0.06
12285 H 22.93496047202673 102.70049743322933 36.85445279196523 H 0.0 **** 0.06
12286 C 79.77369963677066 104.19133178127129 37.49085543386354 C 0.0 **** -0.24
12287 H 80.71409054918945 104.37340279518162 36.972252949331875 H 0.0 **** 0.06
12288 H 79.86006744318871 104.52281070551305 38.52652477486805 H 0.0 **** 0.06
12289 H 79.54759488064275 103.12536779944912 37.46785601816918 H 0.0 **** 0.06
12290 H 78.9739832696313 104.74382250271242 36.99784399914148 H 0.0 **** 0.06
12291 C 30.497810035572535 47.99685750971403 52.414402031838904 C 0.0 **** -0.24
12292 H 30.630415815604252 47.32282990931279 51.56839019476894 H 0.0 **** 0.06
12293 H 29.61929917471889 47.69626621873132 52.98488784951138 H 0.0 **** 0.06
12294 H 30.36513759174636 49.015496551541716 52.05027422051131 H 0.0 **** 0.06
12295 H 31.379513184725624 47.951999390350736 53.054783121132516 H 0.0 **** 0.06
12296 C 65.48003245409242 83.8730463521921 74.23667578845838 C 0.0 **** -0.24
12297 H 64.67063790270647 83.19180255204762 74.49797803555926 H 0.0 **** 0.06
12298 H 65.70081255784223 83.78424018277134 73.1727776789877 H 0.0 **** 0.06
12299 H 66.36881236981023 83.61882455054725 74.81419902651105 H 0.0 **** 0.06
12300 H 65.18022804050395 84.89609271766864 74.46114167216793 H 0.0 **** 0.06
12301 C 60.07239640635609 7.530996930594881 39.73559116949053 C 0.0 **** -0.24
12302 H 60.55504353862899 6.68768674754449 39.2410537409086 H 0.0 **** 0.06
12303 H 59.48074176749091 8.088728521667917 39.009226350556276 H 0.0 **** 0.06
12304 H 60.8319603080911 8.183932556311447 40.164247488440836 H 0.0 **** 0.06
12305 H 59.42060395940926 7.161607561841635 40.52842201813604 H 0.0 **** 0.06
12306 C 24.26739609723961 100.21004072900008 1.497881010876199 C 0.0 **** -0.24
12307 H 24.027164079651925 100.9532387493134 2.258602951811497 H 0.0 **** 0.06
12308 H 24.447378442639945 100.70949067457 0.5457378076613395 H 0.0 **** 0.06
12309 H 23.432613408928233 99.51644522030634 1.392810856003905 H 0.0 **** 0.06
12310 H 25.161094952817393 99.6609050969575 1.7954747061947387 H 0.0 **** 0.06
12311 C 56.59218368295876 29.784246855915598 113.00001506778034 C 0.0 **** -0.24
12312 H 57.58646901780858 29.38805228508039 112.79304862973957 H 0.0 **** 0.06
12313 H 56.299740318104 29.518120095343022 114.01580933063805 H 0.0 **** 0.06
12314 H 55.87801929157558 29.360912389579198 112.29303645399128 H 0.0 **** 0.06
12315 H 56.6052142248422 30.869800435743286 112.89694592618653 H 0.0 **** 0.06
12316 C 113.74333026525437 67.46838085942946 13.781699959261147 C 0.0 **** -0.24
12317 H 114.57063543610096 67.93843031478478 14.313606181662252 H 0.0 **** 0.06
12318 H 113.95481466537287 66.4075862516732 13.644770268510257 H 0.0 **** 0.06
12319 H 113.6216940430046 67.9430752462171 12.807375835248877 H 0.0 **** 0.06
12320 H 112.82717535365232 67.58484840509595 14.359090589173604 H 0.0 **** 0.06
12321 C 38.67687269026328 13.416005089982662 108.54867803739522 C 0.0 **** -0.24
12322 H 37.82507966570563 12.988198929322664 108.02013657612481 H 0.0 **** 0.06
12323 H 39.59916249070966 13.128413449364189 108.04329089587104 H 0.0 **** 0.06
12324 H 38.692245428185544 13.044540859982533 109.57307031108833 H 0.0 **** 0.06
12325 H 38.5902074000395 14.502461304191911 108.55776480085282 H 0.0 **** 0.06
12326 C 32.36819308554811 15.545114699669284 45.14775979379715 C 0.0 **** -0.24
12327 H 32.54397809487591 16.333007199273823 44.415288225310604 H 0.0 **** 0.06
12328 H 32.6437657834481 15.903165344401685 46.139357967752375 H 0.0 **** 0.06
12329 H 32.971517393269316 14.673428679564893 44.89498955229462 H 0.0 **** 0.06
12330 H 31.3124589485218 15.271399119944533 45.1406289090728 H 0.0 **** 0.06
12331 C 31.379180885742073 21.74723883059289 53.604002427843824 C 0.0 **** -0.24
12332 H 30.547791270096866 22.451828334200826 53.55365750549919 H 0.0 **** 0.06
12333 H 31.56420090834743 21.33220839138508 52.61317202509787 H 0.0 **** 0.06
12334 H 31.128757494208685 20.94158665905431 54.2945538659327 H 0.0 **** 0.06
12335 H 32.27133135059256 22.263290945186725 53.95529458215805 H 0.0 **** 0.06
12336 C 73.89746314996201 49.78990147936554 35.70876126100032 C 0.0 **** -0.24
12337 H 73.88544028972359 48.72119495747245 35.49627752833874 H 0.0 **** 0.06
12338 H 74.43320469724385 49.9691301941574 36.641286677814975 H 0.0 **** 0.06
12339 H 72.87455241449474 50.153174367098586 35.80130811852561 H 0.0 **** 0.06
12340 H 74.39770464755617 50.316515422787006 34.89531745942773 H 0.0 **** 0.06
12341 C 112.13577462545535 25.920373917487716 65.45436763842939 C 0.0 **** -0.24
12342 H 111.7527477560744 25.418863409668745 66.34367874177372 H 0.0 **** 0.06
12343 H 113.18899358920083 25.668537354592658 65.32187297423572 H 0.0 **** 0.06
12344 H 112.03228688040471 26.998726412100368 65.57278515490675 H 0.0 **** 0.06
12345 H 111.57093418421906 25.593647442037614 64.5818840690116 H 0.0 **** 0.06
12346 C 106.02545227485335 19.795473996485523 11.008466377711898 C 0.0 **** -0.24
12347 H 105.97863164736486 18.724699392598325 10.808231084030666 H 0.0 **** 0.06
12348 H 106.371415233089 19.959744706386804 12.028937992130352 H 0.0 **** 0.06
12349 H 105.03423122380663 20.231163196463566 10.885766487155735 H 0.0 **** 0.06
12350 H 106.71848757970844 20.26496760534848 10.309400253333308 H 0.0 **** 0.06
12351 C 44.39468374226013 17.511753314362977 68.0629730325341 C 0.0 **** -0.24
12352 H 44.288611407076914 16.528446537721834 67.60362016563352 H 0.0 **** 0.06
12353 H 45.19326404826455 17.482306497783156 68.80387511893463 H 0.0 **** 0.06
12354 H 43.45770480064516 17.788842466573556 68.54706359512653 H 0.0 **** 0.06
12355 H 44.6375219092526 18.245517738518743 67.2945539189094 H 0.0 **** 0.06
12356 C 111.6707190392148 30.606264809592915 33.25196561766768 C 0.0 **** -0.24
12357 H 111.32933107607981 30.098975624558676 34.15514477034003 H 0.0 **** 0.06
12358 H 112.61015857945237 30.16290709071552 32.92063967206093 H 0.0 **** 0.06
12359 H 111.82339096246992 31.664410763723595 33.4653760246087 H 0.0 **** 0.06
12360 H 110.92068885702497 30.497163979648406 32.468927776903115 H 0.0 **** 0.06
12361 C 60.054377456446105 10.695606746795846 26.12568251671354 C 0.0 **** -0.24
12362 H 59.9599296877785 10.022722545487909 25.27264025686665 H 0.0 **** 0.06
12363 H 60.991616115990524 10.493388782694396 26.644593078501458 H 0.0 **** 0.06
12364 H 59.21877324365873 10.536568140350724 26.80686446243743 H 0.0 **** 0.06
12365 H 60.047780667764826 11.727867681429942 25.7763698026356 H 0.0 **** 0.06
12366 C 78.65754948012139 41.79666476884756 97.1237180663939 C 0.0 **** -0.24
12367 H 79.17323381098397 42.67877802779287 96.74125950654447 H 0.0 **** 0.06
12368 H 78.6213331172383 41.841919771168364 98.2126289763899 H 0.0 **** 0.06
12369 H 79.19372600582138 40.90046480329039 96.81402818623661 H 0.0 **** 0.06
12370 H 77.64306840751273 41.77003739388289 96.72678903959914 H 0.0 **** 0.06
12371 C 11.167029626099954 44.974707734741 70.13440695254928 C 0.0 **** -0.24
12372 H 10.41963556843924 44.938639529383124 69.34245638377517 H 0.0 **** 0.06
12373 H 11.2854465630891 46.00384494942213 70.47613444642394 H 0.0 **** 0.06
12374 H 12.119680571405823 44.607733493744234 69.75188680719037 H 0.0 **** 0.06
12375 H 10.844821839914268 44.34953271292852 70.96707968732494 H 0.0 **** 0.06
12376 C 96.33833351566578 59.35267786255298 104.70403466334629 C 0.0 **** -0.24
12377 H 96.26095699516624 59.19937312392807 105.78039523576312 H 0.0 **** 0.06
12378 H 97.33065863689018 59.73580802869344 104.46196691047352 H 0.0 **** 0.06
12379 H 95.58358281233969 60.07117439419301 104.38476103774669 H 0.0 **** 0.06
12380 H 96.17897794448838 58.40546140159199 104.1892771447767 H 0.0 **** 0.06
12381 C 107.80080165766 18.949180441711007 69.23899691766619 C 0.0 **** -0.24
12382 H 108.0226613027852 19.74413827581722 68.52675474340133 H 0.0 **** 0.06
12383 H 108.68099198681932 18.31946497835665 69.36704749128967 H 0.0 **** 0.06
12384 H 106.97344235346435 18.346922208195963 68.86534589728011 H 0.0 **** 0.06
12385 H 107.52574506101328 19.388688871666062 70.19846856242208 H 0.0 **** 0.06
12386 C 92.90380167769919 93.03760174630071 96.92460913915329 C 0.0 **** -0.24
12387 H 92.8173366089155 93.45873385473658 95.92306528949211 H 0.0 **** 0.06
12388 H 92.38204878565884 93.6794085679536 97.63443761952401 H 0.0 **** 0.06
12389 H 93.95629138202901 92.96832902624215 97.20034142374634 H 0.0 **** 0.06
12390 H 92.45839641506211 92.04231407907685 96.93954996895845 H 0.0 **** 0.06
12391 C 49.27362882796522 44.175796775694984 86.7780050571497 C 0.0 **** -0.24
12392 H 48.49505308109643 44.59724696424682 87.41525555785228 H 0.0 **** 0.06
12393 H 49.213453903176614 43.08767527413169 86.80414204886995 H 0.0 **** 0.06
12394 H 50.25068240055851 44.496110850826625 87.1400641353963 H 0.0 **** 0.06
12395 H 49.13283433355901 44.52440612812364 85.75495032859311 H 0.0 **** 0.06
12396 C 94.45776353154125 33.82242980222742 28.38011782182417 C 0.0 **** -0.24
12397 H 94.6659416486945 34.045440814047765 29.426804281065642 H 0.0 **** 0.06
12398 H 95.38964130987614 33.839190230020364 27.81312966938617 H 0.0 **** 0.06
12399 H 93.77392996156881 34.56988682292791 27.978941854009065 H 0.0 **** 0.06
12400 H 94.00272025185801 32.835150262314784 28.30286332051668 H 0.0 **** 0.06
12401 C 16.101616217458638 112.93872903051302 57.959218262175966 C 0.0 **** -0.24
12402 H 15.089248328934346 112.59178358950923 58.16529749964761 H 0.0 **** 0.06
12403 H 16.06679766057098 113.74637969852799 57.225864456971294 H 0.0 **** 0.06
12404 H 16.695076813241705 112.11464081963446 57.56421616988118 H 0.0 **** 0.06
12405 H 16.554374529224894 113.30491803889218 58.88105833466199 H 0.0 **** 0.06
12406 C 6.576369668137829 27.031781837008083 102.9705129725356 C 0.0 **** -0.24
12407 H 6.404634537250018 25.973069412698322 102.776058335594 H 0.0 **** 0.06
12408 H 6.8320279278746625 27.534942441309 102.03742944159626 H 0.0 **** 0.06
12409 H 7.396644566660143 27.142465131618906 103.67946348639725 H 0.0 **** 0.06
12410 H 5.6719773914716995 27.47541998003601 103.38724355608133 H 0.0 **** 0.06
12411 C 20.261323455832496 38.61728039654021 40.22122000240614 C 0.0 **** -0.24
12412 H 19.338904058041408 38.150969481619036 40.56672414870971 H 0.0 **** 0.06
12413 H 21.100540476163303 38.23801786559599 40.80431371763083 H 0.0 **** 0.06
12414 H 20.190148964393018 39.697759950664455 40.34667791137727 H 0.0 **** 0.06
12415 H 20.41448160348682 38.3830082214919 39.1682192284932 H 0.0 **** 0.06
12416 C 4.004275944839421 34.663111567565295 28.130282199409976 C 0.0 **** -0.24
12417 H 3.9680209875898242 34.23848712600153 29.1334183838145 H 0.0 **** 0.06
12418 H 5.03634849784531 34.68022372973115 27.778910572299196 H 0.0 **** 0.06
12419 H 3.610621057258811 35.679887508355876 28.15257878268085 H 0.0 **** 0.06
12420 H 3.4008020905056497 34.05487708913631 27.456692067089563 H 0.0 **** 0.06
12421 C 8.109258920702587 62.283518177653576 86.72871309558737 C 0.0 **** -0.24
12422 H 7.887510904523566 61.31409044245902 87.17316235751053 H 0.0 **** 0.06
12423 H 8.640102128352027 62.90224270629375 87.45332822823912 H 0.0 **** 0.06
12424 H 7.178809142055343 62.7746254669222 86.44528171788107 H 0.0 **** 0.06
12425 H 8.731858477517306 62.14479631471659 85.84435307848041 H 0.0 **** 0.06
12426 C 60.017108184481415 92.57163418012136 85.43391816531006 C 0.0 **** -0.24
12427 H 59.93759675549157 91.95747985183193 86.33006149162044 H 0.0 **** 0.06
12428 H 59.124873504123016 93.19089299397142 85.33761451731628 H 0.0 **** 0.06
12429 H 60.11001358166817 91.92769901669382 84.55923327284509 H 0.0 **** 0.06
12430 H 60.89749868320135 93.21093459945655 85.50937793227297 H 0.0 **** 0.06
12431 C 70.90614333536514 115.23739071173145 26.903886891466662 C 0.0 **** -0.24
12432 H 69.86568291344442 115.06337105642146 26.62943320193712 H 0.0 **** 0.06
12433 H 71.0220079667583 116.26176268844398 27.260344592416658 H 0.0 **** 0.06
12434 H 71.54157830882423 115.08271501772231 26.0313976789758 H 0.0 **** 0.06
12435 H 71.19459115999544 114.5424398156855 27.69238080147244 H 0.0 **** 0.06
12436 C 27.15850588621393 71.53251959332982 89.26198037331983 C 0.0 **** -0.24
12437 H 27.41685912020216 71.26430907627366 90.28669170539001 H 0.0 **** 0.06
12438 H 26.393734217954545 70.85143006097692 88.8901647791057 H 0.0 **** 0.06
12439 H 28.046177180478537 71.46159310934436 88.63317938953884 H 0.0 **** 0.06
12440 H 26.77869305173732 72.55415127946321 89.23886140436571 H 0.0 **** 0.06
12441 C 102.84851745523437 26.223127182009534 50.44966512769804 C 0.0 **** -0.24
12442 H 102.21519203214194 26.84931668688668 51.078118921013015 H 0.0 **** 0.06
12443 H 102.36041469991287 25.261997753824772 50.28558428152655 H 0.0 **** 0.06
12444 H 103.80690135327305 26.064431520537596 50.94426148525963 H 0.0 **** 0.06
12445 H 103.01176346061101 26.716819063559853 49.4916736750061 H 0.0 **** 0.06
12446 C 100.29767813599096 100.42095726252563 36.78546003470143 C 0.0 **** -0.24
12447 H 100.23230962916409 100.94106710533237 35.830024407450935 H 0.0 **** 0.06
12448 H 100.57907599460427 101.12810414563052 37.5656036570802 H 0.0 **** 0.06
12449 H 101.04984434387941 99.63429017776451 36.71909363635956 H 0.0 **** 0.06
12450 H 99.33037880823375 99.98005443507236 37.02607020301075 H 0.0 **** 0.06
12451 C 79.27957089290521 29.424313489324497 109.11338205697737 C 0.0 **** -0.24
12452 H 79.10788096206636 28.70495800723689 109.91479136248026 H 0.0 **** 0.06
12453 H 80.26805583885144 29.26134174678458 108.68523230191181 H 0.0 **** 0.06
12454 H 79.2175349599938 30.435817978723435 109.51376152583653 H 0.0 **** 0.06
12455 H 78.52268304224178 29.292646516085334 108.34026296271449 H 0.0 **** 0.06
12456 C 13.71902585313211 18.208427102775147 81.92042044010573 C 0.0 **** -0.24
12457 H 14.11468345175669 18.396893084813314 82.91779605621709 H 0.0 **** 0.06
12458 H 13.724955032880786 19.13521183613537 81.34615352163851 H 0.0 **** 0.06
12459 H 12.69693405845831 17.836287474730796 81.99942732901701 H 0.0 **** 0.06
12460 H 14.338391814636068 17.46449358061244 81.41846693032446 H 0.0 **** 0.06
12461 C 40.08194271206736 21.350504572215684 4.119755285709353 C 0.0 **** -0.24
12462 H 40.9334752913193 20.94205223314232 3.5760766355738287 H 0.0 **** 0.06
12463 H 40.43512320544295 21.88073429520089 5.0040123277238 H 0.0 **** 0.06
12464 H 39.42107050465202 20.5382703060208 4.422079554607841 H 0.0 **** 0.06
12465 H 39.53742557277258 22.040983475684744 3.4752581535406897 H 0.0 **** 0.06
12466 C 97.95880371717607 63.704718143499434 46.32908585919753 C 0.0 **** -0.24
12467 H 98.97326097783994 64.10137704465461 46.29804237266368 H 0.0 **** 0.06
12468 H 97.53444702096462 63.870367685792246 47.32021565765282 H 0.0 **** 0.06
12469 H 97.97969491694903 62.635954930171124 46.11600769225504 H 0.0 **** 0.06
12470 H 97.34706486355623 64.2115649889638 45.582614548490525 H 0.0 **** 0.06
12471 C 88.11425898232883 55.51609372149636 101.05161808465965 C 0.0 **** -0.24
12472 H 87.95695029017342 55.75916032366064 102.10208232057039 H 0.0 **** 0.06
12473 H 88.72486085102044 54.61653291245034 100.97350748770668 H 0.0 **** 0.06
12474 H 88.62285658700151 56.34555621863569 100.55916599740095 H 0.0 **** 0.06
12475 H 87.15066340911608 55.34507527066506 100.57057975447213 H 0.0 **** 0.06
12476 C 72.72071093813597 91.39416158188311 73.31868066715109 C 0.0 **** -0.24
12477 H 73.62834959682141 91.73722700775093 72.8225529548391 H 0.0 **** 0.06
12478 H 71.96896059230886 92.18286803919585 73.28700890020104 H 0.0 **** 0.06
12479 H 72.94511882113036 91.14733773314836 74.35705859636741 H 0.0 **** 0.06
12480 H 72.34127945886037 90.50773309197211 72.80985174799969 H 0.0 **** 0.06
12481 C 41.17042781396617 4.086110072760533 38.575501420701784 C 0.0 **** -0.24
12482 H 41.959778546358024 3.7448759771036464 37.90607686085724 H 0.0 **** 0.06
12483 H 40.938367418383564 3.3005269069405188 39.29521849478289 H 0.0 **** 0.06
12484 H 40.278295433698105 4.3218323841011 37.99411648788737 H 0.0 **** 0.06
12485 H 41.50399275567668 4.977911857938693 39.10566133408754 H 0.0 **** 0.06
12486 C 66.60495752025227 95.98939682246606 71.03493771232506 C 0.0 **** -0.24
12487 H 66.04486376260778 95.8904448351949 71.96544569802245 H 0.0 **** 0.06
12488 H 65.93993550062548 95.80735521753914 70.1903027844626 H 0.0 **** 0.06
12489 H 67.41621782653147 95.26216972214092 71.02122777862436 H 0.0 **** 0.06
12490 H 67.01725337695991 96.99523684320263 70.96372354387249 H 0.0 **** 0.06
12491 C 58.528174330471415 7.936344620500876 54.7265650485837 C 0.0 **** -0.24
12492 H 58.14329303858892 8.951905331498722 54.63645200851745 H 0.0 **** 0.06
12493 H 58.13533759592775 7.478410450298043 55.63563505819441 H 0.0 **** 0.06
12494 H 59.61629189597937 7.962281140080819 54.773734383939185 H 0.0 **** 0.06
12495 H 58.21576795914899 7.351635112872742 53.86125030035185 H 0.0 **** 0.06
12496 C 80.42550058574125 72.18633625797568 10.205828376142989 C 0.0 **** -0.24
12497 H 79.94104841544333 72.48584096902601 9.276206622523034 H 0.0 **** 0.06
12498 H 80.38679691988398 71.10113950589772 10.302335423491343 H 0.0 **** 0.06
12499 H 79.90771533105894 72.64472805522672 11.049233988593414 H 0.0 **** 0.06
12500 H 81.46453768250637 72.51418247623337 10.195814861179443 H 0.0 **** 0.06
12501 C 46.68749998663574 43.466902642553634 49.75200473096896 C 0.0 **** -0.24
12502 H 47.52114616918183 43.50451624760257 50.45323565822754 H 0.0 **** 0.06
12503 H 46.835078221417945 42.63962359210336 49.057279870460576 H 0.0 **** 0.06
12504 H 46.637951599633254 44.40382205511793 49.1963595404963 H 0.0 **** 0.06
12505 H 45.757263928384646 43.32058780050164 50.299713886593835 H 0.0 **** 0.06
12506 C 93.49453066722134 105.51407089830334 50.80341699333343 C 0.0 **** -0.24
12507 H 93.18356039909673 104.47001480645913 50.83762099152335 H 0.0 **** 0.06
12508 H 94.57620943519782 105.57401885126224 50.92148819781477 H 0.0 **** 0.06
12509 H 93.00867373805812 106.06428851335431 51.61003291794168 H 0.0 **** 0.06
12510 H 93.2082344757824 105.9468496920039 49.845348881512905 H 0.0 **** 0.06
12511 C 81.89928543279757 41.08951023574292 89.69695640273903 C 0.0 **** -0.24
12512 H 82.09270294349244 40.93877768839292 90.75943838884737 H 0.0 **** 0.06
12513 H 82.81315191861637 41.42413890689363 89.20615578373906 H 0.0 **** 0.06
12514 H 81.12301855111053 41.84522373679107 89.57397905742951 H 0.0 **** 0.06
12515 H 81.56872299385935 40.15174088315405 89.25147844106272 H 0.0 **** 0.06
12516 C 83.14372079840645 17.83333696046236 52.64347375064264 C 0.0 **** -0.24
12517 H 82.31415284812053 18.292551452435532 53.181153603018345 H 0.0 **** 0.06
12518 H 83.51606947947394 18.527084413668007 51.88882975528642 H 0.0 **** 0.06
12519 H 82.80076692262442 16.919261057866265 52.15931736409436 H 0.0 **** 0.06
12520 H 83.94328397128446 17.595427578852735 53.34377319486663 H 0.0 **** 0.06
12521 C 21.097740413652275 25.36849202340875 17.20904382997496 C 0.0 **** -0.24
12522 H 20.54941134534991 26.11022126595563 16.62827148306883 H 0.0 **** 0.06
12523 H 20.763964146226215 24.369585909943908 16.929167960116644 H 0.0 **** 0.06
12524 H 20.912174052014393 25.529923598016723 18.270954621403234 H 0.0 **** 0.06
12525 H 22.164393876066697 25.466400787031205 17.008313183824427 H 0.0 **** 0.06
12526 C 72.04310207045188 21.010840832965556 96.4392049848476 C 0.0 **** -0.24
12527 H 72.14809983067738 21.370557359503238 97.46333979606334 H 0.0 **** 0.06
12528 H 71.03102815332778 21.208347289329936 96.0866172472617 H 0.0 **** 0.06
12529 H 72.23634971353664 19.93957473250623 96.4092597574986 H 0.0 **** 0.06
12530 H 72.75858098398885 21.52735449441559 95.79801919792152 H 0.0 **** 0.06
12531 C 41.290512749645885 63.945163396009264 5.188190333534919 C 0.0 **** -0.24
12532 H 41.3069457253596 65.00092137114444 4.91910565572266 H 0.0 **** 0.06
12533 H 42.20781740654546 63.46829320898598 4.840931609484414 H 0.0 **** 0.06
12534 H 40.430727894736634 63.464384498380525 4.7217890063877235 H 0.0 **** 0.06
12535 H 41.21795332598937 63.84876521015627 6.271298846102411 H 0.0 **** 0.06
12536 C 95.39303337076299 66.60910678750085 45.29511399073863 C 0.0 **** -0.24
12537 H 94.84646876105461 66.85416289898791 44.38444874849674 H 0.0 **** 0.06
12538 H 96.45367464336141 66.50530096580565 45.06487708474983 H 0.0 **** 0.06
12539 H 95.01599292883236 65.67201759311001 45.70405025492864 H 0.0 **** 0.06
12540 H 95.2559899986301 67.40663689153416 46.026705757257986 H 0.0 **** 0.06
12541 C 77.68937940390109 115.03472328640399 49.79302256005079 C 0.0 **** -0.24
12542 H 77.99471411993437 115.1800033958765 48.75623472197515 H 0.0 **** 0.06
12543 H 76.71115701602642 115.48913708559908 49.949411817315195 H 0.0 **** 0.06
12544 H 78.41783145835917 115.50182422013717 50.45493781979758 H 0.0 **** 0.06
12545 H 77.63383874051318 113.96753034367119 50.00821322580293 H 0.0 **** 0.06
12546 C 68.20962760908174 101.22704864481614 79.38348142319147 C 0.0 **** -0.24
12547 H 67.98218273312227 102.04541996780809 78.70041937880373 H 0.0 **** 0.06
12548 H 69.29047728697728 101.10437985696586 79.45482504113909 H 0.0 **** 0.06
12549 H 67.76199273020629 100.30653966744488 79.00975056906607 H 0.0 **** 0.06
12550 H 67.80451252778806 101.45466152935255 80.36976471550639 H 0.0 **** 0.06
12551 C 57.59582304146549 106.12257088360997 108.97631432980775 C 0.0 **** -0.24
12552 H 58.21528754145612 106.54141216560296 108.18283823958643 H 0.0 **** 0.06
12553 H 56.72072522815901 106.75531976332692 109.12567713562781 H 0.0 **** 0.06
12554 H 58.1731037833505 106.07418610819877 109.899555579466 H 0.0 **** 0.06
12555 H 57.27615016865336 105.11935786833874 108.6949276961112 H 0.0 **** 0.06
12556 C 62.820287051146806 49.42955314725353 97.50506614420875 C 0.0 **** -0.24
12557 H 63.89996273979506 49.515602420424756 97.62234109151954 H 0.0 **** 0.06
12558 H 62.48529951731129 50.10123921988348 96.71503595909648 H 0.0 **** 0.06
12559 H 62.33134529555343 49.69842842586143 98.44213373789816 H 0.0 **** 0.06
12560 H 62.563945609018674 48.40273174657017 97.2431206086503 H 0.0 **** 0.06
12561 C 85.20308000063835 17.19841498479076 18.62140125250427 C 0.0 **** -0.24
12562 H 86.1630138766622 16.805981521345075 18.283376730419207 H 0.0 **** 0.06
12563 H 84.5468528477493 17.34198434453441 17.762195575590226 H 0.0 **** 0.06
12564 H 85.35869997919582 18.153054454014864 19.123953200837406 H 0.0 **** 0.06
12565 H 84.74620572272795 16.49192328591556 19.313964530450562 H 0.0 **** 0.06
12566 C 32.438890511855675 62.810079333554825 38.99560995599872 C 0.0 **** -0.24
12567 H 31.41844343056914 62.43198289533176 38.941708758788806 H 0.0 **** 0.06
12568 H 32.75508742996976 63.143318533930724 38.006925111091476 H 0.0 **** 0.06
12569 H 33.102638041703415 62.01877070731314 39.34250961014948 H 0.0 **** 0.06
12570 H 32.47862280071229 63.64822909055053 39.69198265485979 H 0.0 **** 0.06
12571 C 85.5606189737311 56.519487706265636 97.9832202115729 C 0.0 **** -0.24
12572 H 85.9843815831113 55.98519603968896 97.13199679405139 H 0.0 **** 0.06
12573 H 86.33750205018858 57.120408031166164 98.45711900564305 H 0.0 **** 0.06
12574 H 85.16567039473273 55.802025702223915 98.70220659716654 H 0.0 **** 0.06
12575 H 84.75631696747323 57.16988841867499 97.6391362649446 H 0.0 **** 0.06
12576 C 106.99398721823287 12.872074308972813 105.19258424769873 C 0.0 **** -0.24
12577 H 106.89189799106413 13.66707241448374 105.93146473351798 H 0.0 **** 0.06
12578 H 106.25037440774335 12.098502807729275 105.38539685125181 H 0.0 **** 0.06
12579 H 107.99353577725103 12.440875570563378 105.25894655608353 H 0.0 **** 0.06
12580 H 106.8416758680248 13.28264719051404 104.19448169356669 H 0.0 **** 0.06
12581 C 28.742960003063473 1.1611913581861728 29.83823465255992 C 0.0 **** -0.24
12582 H 29.68139504233079 0.9632031683980458 30.355895634823383 H 0.0 **** 0.06
12583 H 28.285242457870936 2.062047391336989 30.246129947941114 H 0.0 **** 0.06
12584 H 28.067721135701277 0.3164669851184918 29.97537243611282 H 0.0 **** 0.06
12585 H 28.93760405677969 1.301014718816715 28.77461784690287 H 0.0 **** 0.06
12586 C 8.373142248802637 53.031536111800136 32.81057417295257 C 0.0 **** -0.24
12587 H 7.304215865092459 53.239175544711344 32.87067305822393 H 0.0 **** 0.06
12588 H 8.613876546667115 52.18072999759488 33.44711910151008 H 0.0 **** 0.06
12589 H 8.931235471505488 53.90605139433637 33.144711147224285 H 0.0 **** 0.06
12590 H 8.640250254323277 52.802432148701456 31.779662364405866 H 0.0 **** 0.06
12591 C 8.766786755844237 61.94059271413556 90.87209523398721 C 0.0 **** -0.24
12592 H 9.831149012712757 62.05822291764076 91.07508948166776 H 0.0 **** 0.06
12593 H 8.328467541681235 61.26878332874614 91.61040681867775 H 0.0 **** 0.06
12594 H 8.630839666034973 61.52305155983689 89.87431753164441 H 0.0 **** 0.06
12595 H 8.276690802948295 62.91231305031846 90.92856710395887 H 0.0 **** 0.06
12596 C 115.6916720563969 108.04130282306716 68.11016107740969 C 0.0 **** -0.24
12597 H 116.0457659660924 107.01377204903049 68.02239085856334 H 0.0 **** 0.06
12598 H 116.32741547910555 108.58580983823774 68.80850338496445 H 0.0 **** 0.06
12599 H 114.66493634253311 108.04056008034404 68.4777435098428 H 0.0 **** 0.06
12600 H 115.72747853330037 108.52295484556662 67.13258712821897 H 0.0 **** 0.06
12601 C 87.089693425693 94.28147018541684 110.1881609269915 C 0.0 **** -0.24
12602 H 87.86922991924888 95.03125919586918 110.04955030559063 H 0.0 **** 0.06
12603 H 87.28051048070867 93.72445016485403 111.10546355083198 H 0.0 **** 0.06
12604 H 87.09075843526071 93.59554707408036 109.33988619754675 H 0.0 **** 0.06
12605 H 86.11984351521687 94.7742732509642 110.2561891802674 H 0.0 **** 0.06
12606 C 22.551094479943856 27.620379709697715 66.35271281423479 C 0.0 **** -0.24
12607 H 22.95594475366923 27.019410364216668 67.16722167113181 H 0.0 **** 0.06
12608 H 21.465605086768136 27.671177488855818 66.44429328470636 H 0.0 **** 0.06
12609 H 22.814189178244533 27.163661913258608 65.39854899391548 H 0.0 **** 0.06
12610 H 22.968171997874833 28.625959504602065 66.4010464348267 H 0.0 **** 0.06
12611 C 35.200927902922295 114.54037582461203 77.98369834793215 C 0.0 **** -0.24
12612 H 35.55864039934979 113.87135156880785 77.20081209205136 H 0.0 **** 0.06
12613 H 34.724180072426975 115.4096192000521 77.52966303355402 H 0.0 **** 0.06
12614 H 36.04142660261961 114.86422968461474 78.59607247053083 H 0.0 **** 0.06
12615 H 34.47778503010381 114.01451970937953 78.60824087324846 H 0.0 **** 0.06
12616 C 75.1434517428954 106.02399190862721 65.7710211240146 C 0.0 **** -0.24
12617 H 74.38402367756312 105.61540803282656 66.43773754701745 H 0.0 **** 0.06
12618 H 75.12844758320736 107.11256615871105 65.82792061001238 H 0.0 **** 0.06
12619 H 74.93471687035893 105.71007315688992 64.7485763623526 H 0.0 **** 0.06
12620 H 76.12568295380771 105.6572480882666 66.07066996448768 H 0.0 **** 0.06
12621 C 75.48431911233234 24.50057615726155 99.55162661529337 C 0.0 **** -0.24
12622 H 74.7674427142278 25.31617293423983 99.45154794861391 H 0.0 **** 0.06
12623 H 76.17016240764482 24.514612948839613 98.70431290683428 H 0.0 **** 0.06
12624 H 74.95150618274607 23.549487432233946 99.57253638503691 H 0.0 **** 0.06
12625 H 76.04626762175047 24.622158937889594 100.47693303915513 H 0.0 **** 0.06
12626 C 106.5378840696591 77.4570719694101 6.209135243801967 C 0.0 **** -0.24
12627 H 107.318214054939 77.98796129233875 6.7531693576656835 H 0.0 **** 0.06
12628 H 105.89724046844066 78.17689099979049 5.6984994022717785 H 0.0 **** 0.06
12629 H 105.94174784263527 76.87137395041111 6.908586427169553 H 0.0 **** 0.06
12630 H 106.99400286448076 76.79235285963637 5.4753882067618065 H 0.0 **** 0.06
12631 C 24.972397892601265 19.349658650222654 81.76628279050539 C 0.0 **** -0.24
12632 H 23.956573970519685 19.078367459050668 81.48041682073722 H 0.0 **** 0.06
12633 H 25.682681133215794 18.757653635205557 81.18823055057624 H 0.0 **** 0.06
12634 H 25.11540296730496 19.15329115765778 82.82835145492533 H 0.0 **** 0.06
12635 H 25.13493349936499 20.409322348976602 81.56813233578254 H 0.0 **** 0.06
12636 C 113.98718662373426 69.28066547228002 10.254524966044741 C 0.0 **** -0.24
12637 H 114.71764677372596 69.9245426918826 10.74400594519983 H 0.0 **** 0.06
12638 H 113.15289016690997 69.09725026826209 10.93205420918028 H 0.0 **** 0.06
12639 H 114.45719625776326 68.33274997277113 9.992290890274973 H 0.0 **** 0.06
12640 H 113.62104946662657 69.76724987733007 9.351246672728152 H 0.0 **** 0.06
12641 C 104.05994438949017 96.25810852991584 90.21528944828529 C 0.0 **** -0.24
12642 H 104.18401811262399 95.88165485615782 91.23084689012977 H 0.0 **** 0.06
12643 H 103.05521439900284 96.02528354085513 89.86264696412869 H 0.0 **** 0.06
12644 H 104.792783625389 95.78642696117485 89.56141817021607 H 0.0 **** 0.06
12645 H 104.20756269781404 97.3375040516992 90.20783084807938 H 0.0 **** 0.06
12646 C 9.791930871045238 24.717882565846793 21.558384313454866 C 0.0 **** -0.24
12647 H 10.123314974603659 24.13301229117748 20.70068747923088 H 0.0 **** 0.06
12648 H 9.906023809153012 24.127094601852974 22.4677912587413 H 0.0 **** 0.06
12649 H 8.743587322097767 24.98822567610148 21.429823080295108 H 0.0 **** 0.06
12650 H 10.393578035339615 25.623323907122938 21.634530179062523 H 0.0 **** 0.06
12651 C 27.86204620477742 55.04175274983198 106.01021518011359 C 0.0 **** -0.24
12652 H 27.272335154771184 54.190133091399865 106.34973601840935 H 0.0 **** 0.06
12653 H 28.21647888075153 54.8573557074417 104.99617782805146 H 0.0 **** 0.06
12654 H 28.71608738061316 55.179321234875076 106.674678297099 H 0.0 **** 0.06
12655 H 27.24454329383125 55.93982965320281 106.02296585587179 H 0.0 **** 0.06
12656 C 75.39143914605688 99.53019277708682 51.736501301097746 C 0.0 **** -0.24
12657 H 74.77652569393604 99.12017864889235 52.53727741174913 H 0.0 **** 0.06
12658 H 74.79686170787647 99.61335291849886 50.82665097039114 H 0.0 **** 0.06
12659 H 76.24032786360868 98.87118495155349 51.556662104871066 H 0.0 **** 0.06
12660 H 75.75388363593942 100.51732037594194 52.025351977213006 H 0.0 **** 0.06
12661 C 26.5619468662112 63.24252547643914 111.23911170028556 C 0.0 **** -0.24
12662 H 26.947519657638992 63.18781069522487 110.22077359249936 H 0.0 **** 0.06
12663 H 26.490403713657514 64.2873262910459 111.54468739145172 H 0.0 **** 0.06
12664 H 27.235115155526046 62.7111034962538 111.91126618025928 H 0.0 **** 0.06
12665 H 25.573453580975524 62.78373049208926 111.27701678308536 H 0.0 **** 0.06
12666 C 51.19764458990787 113.27630111437263 52.41135933587873 C 0.0 **** -0.24
12667 H 50.73654439623042 113.83943433874215 53.22382855735458 H 0.0 **** 0.06
12668 H 51.114437662064944 112.2090960011309 52.616301750445444 H 0.0 **** 0.06
12669 H 52.24882520810528 113.55063886034125 52.3316374592286 H 0.0 **** 0.06
12670 H 50.689271010931485 113.50803946678954 51.47560179436789 H 0.0 **** 0.06
12671 C 87.7842939928542 3.246985787579579 88.66863676746199 C 0.0 **** -0.24
12672 H 87.57122360124183 2.1793314505608237 88.70971857294191 H 0.0 **** 0.06
12673 H 88.80417526250609 3.427082382526457 89.00953998909847 H 0.0 **** 0.06
12674 H 87.08556978387071 3.782766347380985 89.31061043208983 H 0.0 **** 0.06
12675 H 87.67738189944292 3.598592752485027 87.64211061529943 H 0.0 **** 0.06
12676 C 100.80507928276813 62.4820382142932 85.84967997705627 C 0.0 **** -0.24
12677 H 100.1599873137011 61.6807438448933 85.4889678313603 H 0.0 **** 0.06
12678 H 101.77115157429313 62.42454043522525 85.34683212319845 H 0.0 **** 0.06
12679 H 100.94818688939012 62.37756276113447 86.92464117656283 H 0.0 **** 0.06
12680 H 100.34159552031667 63.44564181525283 85.63640199406319 H 0.0 **** 0.06
12681 C 49.84601684437135 62.231960996911596 74.59433886996152 C 0.0 **** -0.24
12682 H 49.93047148946721 63.01793391320598 73.84401058902876 H 0.0 **** 0.06
12683 H 50.82211120614244 62.056010306246606 75.0476001256319 H 0.0 **** 0.06
12684 H 49.493598136525236 61.314481597986514 74.12235772953403 H 0.0 **** 0.06
12685 H 49.13824441455324 62.540503426720306 75.36422025930614 H 0.0 **** 0.06
12686 C 63.32913203393784 74.10064958667766 0.03803451994414786 C 0.0 **** -0.24
12687 H 63.463903016492225 73.49711100132726 -0.8593530724626817 H 0.0 **** 0.06
12688 H 63.64924668943087 75.1236454371502 -0.16220210870285712 H 0.0 **** 0.06
12689 H 63.92533358436452 73.68414995979168 0.8489804112214898 H 0.0 **** 0.06
12690 H 62.27645343893522 74.09845613984493 0.3222871645558314 H 0.0 **** 0.06
12691 C 11.54287484641517 26.995105696172686 28.863271567020377 C 0.0 **** -0.24
12692 H 12.064829120370923 27.94654204197377 28.967282103497098 H 0.0 **** 0.06
12693 H 11.807019717077456 26.539060094603173 27.908842688675833 H 0.0 **** 0.06
12694 H 10.467320561091213 27.165565541956084 28.899931137476045 H 0.0 **** 0.06
12695 H 11.833799052842203 26.33052899977983 29.676562077400604 H 0.0 **** 0.06
12696 C 62.11972807050398 29.622476472169296 85.16736212105363 C 0.0 **** -0.24
12697 H 62.8691369358923 30.305387881741808 84.76787759947837 H 0.0 **** 0.06
12698 H 62.142177789139 28.68943193117525 84.60363746136143 H 0.0 **** 0.06
12699 H 61.132618802835 30.076682359653887 85.08054123311257 H 0.0 **** 0.06
12700 H 62.335215906975634 29.419248108881106 86.21533524016814 H 0.0 **** 0.06
12701 C 34.70923905284211 91.11213107515528 62.135626028821946 C 0.0 **** -0.24
12702 H 34.02046875819579 91.53747465577672 61.40495104183981 H 0.0 **** 0.06
12703 H 35.00792769799553 91.88297859859239 62.845656811540266 H 0.0 **** 0.06
12704 H 35.59140154352248 90.72912296660184 61.621327713432095 H 0.0 **** 0.06
12705 H 34.21694605367486 90.29800035653693 62.66791199717966 H 0.0 **** 0.06
12706 C 101.94890878675682 74.50751735966922 28.022410810562505 C 0.0 **** -0.24
12707 H 101.50009494940514 73.65066320140535 28.526504788219597 H 0.0 **** 0.06
12708 H 103.00779338842551 74.56306751490885 28.275823832404704 H 0.0 **** 0.06
12709 H 101.44993305226313 75.42096612157263 28.34500667515914 H 0.0 **** 0.06
12710 H 101.83805706013567 74.39231484529631 26.94420311772511 H 0.0 **** 0.06
12711 C 49.397471117275074 91.97146354673914 4.836521853148321 C 0.0 **** -0.24
12712 H 49.512300417943266 91.09855612505262 4.194629053281696 H 0.0 **** 0.06
12713 H 49.67046441041663 92.86908751952285 4.281091878531248 H 0.0 **** 0.06
12714 H 50.04579175149115 91.87070929968978 5.707283890053624 H 0.0 **** 0.06
12715 H 48.359798967670656 92.04825870837573 5.1633806094005585 H 0.0 **** 0.06
12716 C 23.951693802854322 68.51639800938659 61.29897321884181 C 0.0 **** -0.24
12717 H 24.44643199384356 67.69120832276758 61.8121814743854 H 0.0 **** 0.06
12718 H 24.380624506406434 68.63326147754469 60.30315847564927 H 0.0 **** 0.06
12719 H 24.0962401646608 69.43484028984307 61.86762747543975 H 0.0 **** 0.06
12720 H 22.88574705152405 68.30511580936013 61.214504854475535 H 0.0 **** 0.06
12721 C 114.06609283881454 75.87128587651767 100.21635621819422 C 0.0 **** -0.24
12722 H 113.51060445903491 75.45807333997442 99.37421036531 H 0.0 **** 0.06
12723 H 114.15642913449443 76.95133139269197 100.09729895309758 H 0.0 **** 0.06
12724 H 115.06033955721074 75.42502016777001 100.24927994628746 H 0.0 **** 0.06
12725 H 113.53815515394844 75.650659268212 101.14382439860839 H 0.0 **** 0.06
12726 C 51.974520879729766 99.39340326564314 95.99318710446144 C 0.0 **** -0.24
12727 H 52.90896809866547 98.97672434205447 95.61657104656382 H 0.0 **** 0.06
12728 H 51.836087447589875 99.09432504054598 97.03192765210935 H 0.0 **** 0.06
12729 H 51.14414493207056 99.02133726365241 95.39370133606093 H 0.0 **** 0.06
12730 H 52.0098865240916 100.4808172156599 95.92919718132269 H 0.0 **** 0.06
12731 C 78.95547033590225 105.26332522279755 33.34037220574396 C 0.0 **** -0.24
12732 H 79.04366931036242 106.34403129252924 33.45719239621775 H 0.0 **** 0.06
12733 H 79.9440045711984 104.80911088352458 33.41203799054716 H 0.0 **** 0.06
12734 H 78.52006501281159 105.03812985817227 32.3667204111664 H 0.0 **** 0.06
12735 H 78.3134649799731 104.8649412830248 34.12578158529857 H 0.0 **** 0.06
12736 C 50.73636666093816 17.061142465770104 53.41408616629965 C 0.0 **** -0.24
12737 H 50.5340689023532 16.526241683505134 52.48644383571757 H 0.0 **** 0.06
12738 H 50.243225181787096 16.550979468242872 54.24140336096935 H 0.0 **** 0.06
12739 H 50.35670439488109 18.080043974740875 53.336588781490256 H 0.0 **** 0.06
12740 H 51.81146816473108 17.08730473659142 53.59190868702136 H 0.0 **** 0.06
12741 C 26.09402307708349 40.08703935803379 23.760915908721273 C 0.0 **** -0.24
12742 H 26.32212777426438 40.12272372439449 24.82589027066649 H 0.0 **** 0.06
12743 H 26.570510596312644 40.93031039320154 23.259601399924804 H 0.0 **** 0.06
12744 H 25.01547733429973 40.14139936356918 23.618590464869442 H 0.0 **** 0.06
12745 H 26.470090267647365 39.15398834769289 23.340261795223626 H 0.0 **** 0.06
12746 C 40.794861280414665 42.610955624761914 18.000706824018774 C 0.0 **** -0.24
12747 H 39.93446570507194 42.16212522918323 18.49677160548018 H 0.0 **** 0.06
12748 H 40.62944068811228 43.68258815780314 17.885475104753624 H 0.0 **** 0.06
12749 H 40.92714736267274 42.15528487474688 17.020153393611395 H 0.0 **** 0.06
12750 H 41.68771878629954 42.443775320520615 18.602022627764892 H 0.0 **** 0.06
12751 C 25.07943252896468 73.14167485402578 69.40528684763825 C 0.0 **** -0.24
12752 H 25.121081296682476 72.9334495300991 68.33618388388467 H 0.0 **** 0.06
12753 H 26.060304264227014 72.96363331133381 69.84863832335603 H 0.0 **** 0.06
12754 H 24.344173010124578 72.48748584574025 69.87336666011441 H 0.0 **** 0.06
12755 H 24.793905470572504 74.18193320230574 69.56156039264465 H 0.0 **** 0.06
12756 C 14.19172420934138 91.24306857905941 33.29054990689826 C 0.0 **** -0.24
12757 H 14.030328266154442 91.7083825886001 34.26284346639096 H 0.0 **** 0.06
12758 H 13.434983819548481 91.59578881900006 32.588881150951266 H 0.0 **** 0.06
12759 H 14.118968878113183 90.15991548326508 33.38998633876593 H 0.0 **** 0.06
12760 H 15.182049082460544 91.50894677965522 32.920169006353355 H 0.0 **** 0.06
12761 C 110.98508787208601 105.11857652750156 76.37362938768496 C 0.0 **** -0.24
12762 H 111.21835404464137 105.35274998325129 77.41267042747577 H 0.0 **** 0.06
12763 H 111.70395548228495 104.39164195708994 75.99497905999583 H 0.0 **** 0.06
12764 H 111.037701045337 106.0279577421344 75.77530907765379 H 0.0 **** 0.06
12765 H 109.98002338923332 104.70138953432226 76.31231916036639 H 0.0 **** 0.06
12766 C 76.3497281283878 111.37861119075787 38.913534479515704 C 0.0 **** -0.24
12767 H 77.23217337536067 111.90790541480445 38.55442509696002 H 0.0 **** 0.06
12768 H 76.42992618700598 111.23036206642554 39.9915415107871 H 0.0 **** 0.06
12769 H 76.27885220152837 110.4109582177881 38.417057020258596 H 0.0 **** 0.06
12770 H 75.4584851520541 111.96638841342369 38.69320186406844 H 0.0 **** 0.06
12771 C 27.9685727984411 25.43637614721166 34.37470339523105 C 0.0 **** -0.24
12772 H 28.623796526580392 26.298955465027035 34.49876135586538 H 0.0 **** 0.06
12773 H 26.932794362723506 25.74193014033085 34.52951444421399 H 0.0 **** 0.06
12774 H 28.234382547239044 24.67119227140222 35.10383393920148 H 0.0 **** 0.06
12775 H 28.08323903656715 25.03519543398295 33.36839669931186 H 0.0 **** 0.06
12776 C 95.55944763256394 100.97306211895085 100.7848176019055 C 0.0 **** -0.24
12777 H 94.67150658054487 101.2390484816475 100.21167846268457 H 0.0 **** 0.06
12778 H 95.79338833514475 99.91990523932483 100.62353837295427 H 0.0 **** 0.06
12779 H 95.37352321206367 101.14702305925616 101.84401879980163 H 0.0 **** 0.06
12780 H 96.39917916635943 101.58585856108317 100.45762804808908 H 0.0 **** 0.06
12781 C 39.396026212527886 89.884110154783 114.06686370839373 C 0.0 **** -0.24
12782 H 40.405844803452 89.47510251544787 114.04745550307794 H 0.0 **** 0.06
12783 H 39.41804365396722 90.88497529847763 114.49892943914521 H 0.0 **** 0.06
12784 H 38.755638885395285 89.24140614810608 114.67183002535586 H 0.0 **** 0.06
12785 H 39.00471064447153 89.9352123303376 113.05062443069737 H 0.0 **** 0.06
12786 C 63.43308256050804 55.794013567610875 58.504209172699404 C 0.0 **** -0.24
12787 H 63.74014197034434 55.24341749184646 59.39296954015515 H 0.0 **** 0.06
12788 H 64.30141296387185 56.28097568090425 58.06046739960317 H 0.0 **** 0.06
12789 H 62.695949379104675 56.54735906816393 58.780773347643844 H 0.0 **** 0.06
12790 H 62.993739608572966 55.10407970098544 57.78350423726363 H 0.0 **** 0.06
12791 C 95.33107928793447 0.536575369592299 28.117462575206105 C 0.0 **** -0.24
12792 H 95.111149276866 -0.42415696740302167 27.65191158805129 H 0.0 **** 0.06
12793 H 94.65980556461625 1.2965511462724066 27.716708286841452 H 0.0 **** 0.06
12794 H 96.36377887750223 0.8150603493234456 27.906665876728738 H 0.0 **** 0.06
12795 H 95.18924633033765 0.4580407312508612 29.195676523451482 H 0.0 **** 0.06
12796 C 29.924546579219665 73.25711315478624 68.55791698066179 C 0.0 **** -0.24
12797 H 29.20095190897463 74.04494066780165 68.3503041797631 H 0.0 **** 0.06
12798 H 30.91297429421345 73.57523662485974 68.22674232757504 H 0.0 **** 0.06
12799 H 29.63689151568093 72.35091506580265 68.0255767718192 H 0.0 **** 0.06
12800 H 29.946225334097676 73.058105277077 69.6294161430468 H 0.0 **** 0.06
12801 C 104.8157317507723 106.13033217057023 44.182581807059364 C 0.0 **** -0.24
12802 H 105.17666222257958 106.36373169263084 43.18180045741238 H 0.0 **** 0.06
12803 H 104.00175681241427 106.80770063286019 44.44211861859819 H 0.0 **** 0.06
12804 H 105.62930099081211 106.24843476242614 44.89931432746911 H 0.0 **** 0.06
12805 H 104.45508034536755 105.10167037398878 44.20848683916911 H 0.0 **** 0.06
12806 C 110.57514076390149 37.79495813581721 60.995876438141494 C 0.0 **** -0.24
12807 H 109.60552663888018 38.26663537971976 61.16007651426942 H 0.0 **** 0.06
12808 H 110.43686875805074 36.86233223191721 60.44904618998811 H 0.0 **** 0.06
12809 H 111.04544803906758 37.58737578772059 61.957117926545166 H 0.0 **** 0.06
12810 H 111.21007497319759 38.46521542765143 60.417427474572946 H 0.0 **** 0.06
12811 C 87.10047156133572 40.9439927629449 24.879855792936553 C 0.0 **** -0.24
12812 H 86.45506891065156 40.18727165156301 24.43357656922484 H 0.0 **** 0.06
12813 H 87.30519115027693 40.68029685595583 25.917919357912012 H 0.0 **** 0.06
12814 H 86.60259457378783 41.91289745499887 24.842083367873812 H 0.0 **** 0.06
12815 H 88.03794760495299 40.993347869973576 24.32625821695092 H 0.0 **** 0.06
12816 C 6.137142238688256 15.89796857874724 19.4899555122025 C 0.0 **** -0.24
12817 H 6.1510042825298505 15.291625614251316 20.394938128250544 H 0.0 **** 0.06
12818 H 5.464281443718825 15.446019688249649 18.760090321853454 H 0.0 **** 0.06
12819 H 7.14251540079991 15.951806799948429 19.073178876947168 H 0.0 **** 0.06
12820 H 5.789475547189323 16.902764627964018 19.732076107141125 H 0.0 **** 0.06
12821 C 50.745232927542986 84.96051894815011 6.428302127413531 C 0.0 **** -0.24
12822 H 50.63690748914023 85.91181180252204 6.947355058592436 H 0.0 **** 0.06
12823 H 49.91852671976733 84.83123212577128 5.7298700906863616 H 0.0 **** 0.06
12824 H 50.73767247820484 84.14753729990649 7.1540356939831895 H 0.0 **** 0.06
12825 H 51.68833937374224 84.95048298903266 5.881103704086527 H 0.0 **** 0.06
12826 C 66.18503756020687 74.42126910075663 44.206585666615894 C 0.0 **** -0.24
12827 H 65.11308648680443 74.5710835948118 44.341326741823636 H 0.0 **** 0.06
12828 H 66.62322522750662 75.31665428140656 43.764460613159045 H 0.0 **** 0.06
12829 H 66.35265775849086 73.57095824171924 43.547113644214676 H 0.0 **** 0.06
12830 H 66.64950933655786 74.22924077380168 45.173284993545195 H 0.0 **** 0.06
12831 C 58.73574427909597 69.17474444807398 55.293874035145315 C 0.0 **** -0.24
12832 H 58.25286679277862 69.4372284740844 56.23474223945588 H 0.0 **** 0.06
12833 H 57.97397044630182 68.94827676050674 54.54616171496916 H 0.0 **** 0.06
12834 H 59.371124465514754 68.30110232091002 55.442117260259145 H 0.0 **** 0.06
12835 H 59.34349846234531 70.01166398908178 54.95068595420193 H 0.0 **** 0.06
12836 C 107.20824593766719 14.415332027198296 76.16360738754966 C 0.0 **** -0.24
12837 H 106.2206426908721 14.277120501176057 76.60493608527759 H 0.0 **** 0.06
12838 H 107.13509132454595 15.098478156681061 75.3181274925954 H 0.0 **** 0.06
12839 H 107.59127631679243 13.453997195553484 75.82211128243563 H 0.0 **** 0.06
12840 H 107.88412064275661 14.831124781511758 76.91073743695821 H 0.0 **** 0.06
12841 C 75.76829552379316 69.58268794403097 45.23384167868633 C 0.0 **** -0.24
12842 H 75.46045007044196 69.34560410237765 46.252818641438154 H 0.0 **** 0.06
12843 H 75.36413056996099 68.83747026106369 44.549349312387676 H 0.0 **** 0.06
12844 H 76.85640469118889 69.58001390440262 45.17380989982276 H 0.0 **** 0.06
12845 H 75.39270866354695 70.56866539329229 44.962508926854184 H 0.0 **** 0.06
12846 C 24.21007285068214 5.2785985352376485 89.35334421866372 C 0.0 **** -0.24
12847 H 23.754849977460594 4.380691029389794 88.93497019519282 H 0.0 **** 0.06
12848 H 24.241890249391815 5.19747370665597 90.43941093595907 H 0.0 **** 0.06
12849 H 23.618715601061524 6.150030263756705 89.07042204020553 H 0.0 **** 0.06
12850 H 25.223354915021105 5.386482180566162 88.96597985537932 H 0.0 **** 0.06
12851 C 43.39825554903521 70.28227475037056 63.7434306546611 C 0.0 **** -0.24
12852 H 43.53100346162624 69.40859185965007 63.106423846400816 H 0.0 **** 0.06
12853 H 42.59861087777068 70.90623392329334 63.34234214678952 H 0.0 **** 0.06
12854 H 44.32479316336358 70.85453036558548 63.77404184574959 H 0.0 **** 0.06
12855 H 43.13617037070759 69.95987927543783 64.75099854574353 H 0.0 **** 0.06
12856 C 27.074143021224103 5.590402772335551 109.04369510161699 C 0.0 **** -0.24
12857 H 27.37057953206164 6.523540348919084 109.52167329609789 H 0.0 **** 0.06
12858 H 26.201239003384785 5.181560278863287 109.55388234110602 H 0.0 **** 0.06
12859 H 27.894834676166866 4.876301126833596 109.10038302964655 H 0.0 **** 0.06
12860 H 26.82854545678071 5.780069983138958 107.9985344580357 H 0.0 **** 0.06
12861 C 21.73983367169987 14.2952292815812 47.52852980295277 C 0.0 **** -0.24
12862 H 22.388032803820124 13.47321693061302 47.22516678224085 H 0.0 **** 0.06
12863 H 20.901929616155826 14.371683899355673 46.83452683277526 H 0.0 **** 0.06
12864 H 22.306087610339205 15.2267722398704 47.51758573652122 H 0.0 **** 0.06
12865 H 21.363946560735087 14.109351272381986 48.534706629900874 H 0.0 **** 0.06
12866 C 55.352160256065716 41.40810189635789 72.05133717080918 C 0.0 **** -0.24
12867 H 55.204890896718325 42.17309471880856 71.29016625170067 H 0.0 **** 0.06
12868 H 56.01045302893963 41.791969751165425 72.83100484156625 H 0.0 **** 0.06
12869 H 55.80259977921621 40.525774249771615 71.59668267063682 H 0.0 **** 0.06
12870 H 54.38898249428692 41.140277668680454 72.4881213931738 H 0.0 **** 0.06
12871 C 17.447248620548407 48.641276738565864 21.53945888491816 C 0.0 **** -0.24
12872 H 17.05465407359307 49.61818951011327 21.258274814596973 H 0.0 **** 0.06
12873 H 18.34844887729173 48.43239001023073 20.963370383289714 H 0.0 **** 0.06
12874 H 16.698670119845985 47.87590160589528 21.334645092511835 H 0.0 **** 0.06
12875 H 17.68631851770016 48.63838500343229 22.603313585728813 H 0.0 **** 0.06
12876 C 97.25548731554164 85.81462647689196 67.33378967005746 C 0.0 **** -0.24
12877 H 96.30812680965528 85.58825621661947 66.84447061766318 H 0.0 **** 0.06
12878 H 97.96872079331155 85.01618573798368 67.12858499405249 H 0.0 **** 0.06
12879 H 97.0988829846623 85.89479631857608 68.40892703999026 H 0.0 **** 0.06
12880 H 97.6456283360546 86.75836053758565 66.95226564970721 H 0.0 **** 0.06
12881 C 15.440229709083383 74.96591062768803 115.46936769558675 C 0.0 **** -0.24
12882 H 16.13431534610001 74.25834664719387 115.01660853692309 H 0.0 **** 0.06
12883 H 15.567989498454523 74.95629592091422 116.55217450766727 H 0.0 **** 0.06
12884 H 14.417827723019144 74.68099815869947 115.22179629321256 H 0.0 **** 0.06
12885 H 15.64091400734776 75.9663166282273 115.08835575918647 H 0.0 **** 0.06
12886 C 49.33270306599874 92.64822703223973 16.98027074450947 C 0.0 **** -0.24
12887 H 49.2450101372815 93.1755323963398 16.02933033265741 H 0.0 **** 0.06
12888 H 48.39648392814584 92.13379707078815 17.19751739775055 H 0.0 **** 0.06
12889 H 49.54741050341477 93.36478795036979 17.77288143287969 H 0.0 **** 0.06
12890 H 50.14186235495498 91.9205572105135 16.918210859998215 H 0.0 **** 0.06
12891 C 92.97993197852367 48.487958794858784 82.97962164695747 C 0.0 **** -0.24
12892 H 92.88578386414127 48.22434792738993 81.92672567327531 H 0.0 **** 0.06
12893 H 94.03536243492317 48.58437104263602 83.23705486899354 H 0.0 **** 0.06
12894 H 92.52676410667326 47.70834100610912 83.59109812134034 H 0.0 **** 0.06
12895 H 92.47245274492414 49.435157907921145 83.16427879569784 H 0.0 **** 0.06
12896 C 52.860380848271376 4.042347368509894 11.848676153125268 C 0.0 **** -0.24
12897 H 52.11300409031821 4.829277214965714 11.942664826872715 H 0.0 **** 0.06
12898 H 53.857599375541014 4.474840836363711 11.93743557818766 H 0.0 **** 0.06
12899 H 52.7595497197338 3.559520014617135 10.876270668185555 H 0.0 **** 0.06
12900 H 52.712811003873924 3.304657601636052 12.637019013663348 H 0.0 **** 0.06
12901 C 12.772301048640063 5.516177758205643 10.34650514762302 C 0.0 **** -0.24
12902 H 11.763224758602309 5.209941879150364 10.069719651013429 H 0.0 **** 0.06
12903 H 12.754109759210682 6.548555589477218 10.697523260360555 H 0.0 **** 0.06
12904 H 13.426451760777049 5.439067938223715 9.478914006207447 H 0.0 **** 0.06
12905 H 13.142492645273055 4.868595531127866 11.140447789224169 H 0.0 **** 0.06
12906 C 41.050959658148145 35.15066708154883 112.47767632991483 C 0.0 **** -0.24
12907 H 42.13940021362001 35.21190746150185 112.46466261533058 H 0.0 **** 0.06
12908 H 40.74010963914236 34.145958419212846 112.19051897278723 H 0.0 **** 0.06
12909 H 40.638336113192224 35.87438530187426 111.77411655693038 H 0.0 **** 0.06
12910 H 40.6878483306362 35.37166196081674 113.48132217138664 H 0.0 **** 0.06
12911 C 87.67154762537734 27.516757575704247 97.23314358140718 C 0.0 **** -0.24
12912 H 87.44124703894988 28.580876606924505 97.28051292418448 H 0.0 **** 0.06
12913 H 86.92321186694511 26.95823412651822 97.79690044272166 H 0.0 **** 0.06
12914 H 88.6578930188362 27.33938142286152 97.66179147650462 H 0.0 **** 0.06
12915 H 87.66297902539895 27.189659400371852 96.19330564700238 H 0.0 **** 0.06
12916 C 47.13545133913526 76.18570106356964 85.70302797764532 C 0.0 **** -0.24
12917 H 46.74679380130686 75.538525318999 84.9156490804192 H 0.0 **** 0.06
12918 H 47.92228638760851 76.82025995352956 85.29539067966915 H 0.0 **** 0.06
12919 H 47.541084865162205 75.57325144607921 86.50843500190632 H 0.0 **** 0.06
12920 H 46.329108883675005 76.80879410758246 86.09071405301772 H 0.0 **** 0.06
12921 C 21.046828496095827 73.18883806065514 78.9309771697245 C 0.0 **** -0.24
12922 H 20.72333025082088 72.22016299193231 78.54949181739708 H 0.0 **** 0.06
12923 H 20.986937260674722 73.18784599884293 80.01994993635266 H 0.0 **** 0.06
12924 H 20.40015868158514 73.96972340786269 78.53125756924464 H 0.0 **** 0.06
12925 H 22.074968989939407 73.3753221723286 78.62301081609414 H 0.0 **** 0.06
12926 C 111.48441305352071 48.6833567526105 113.2071483536941 C 0.0 **** -0.24
12927 H 111.23876228356451 48.6781589351174 114.26864455322936 H 0.0 **** 0.06
12928 H 111.28234317484043 49.67041773626426 112.7920629481935 H 0.0 **** 0.06
12929 H 110.87759300672093 47.93972763832747 112.69039044721357 H 0.0 **** 0.06
12930 H 112.53981569796389 48.444038689515224 113.07778195752576 H 0.0 **** 0.06
12931 C 93.18027266549618 61.78974021383141 107.80015429170733 C 0.0 **** -0.24
12932 H 92.93841328776705 61.0198782068708 107.06796917923926 H 0.0 **** 0.06
12933 H 94.16327008497075 62.20690469504311 107.57864245104905 H 0.0 **** 0.06
12934 H 93.18765146458782 61.35247405636312 108.79854319951595 H 0.0 **** 0.06
12935 H 92.43090817491981 62.58048159800694 107.75628500637778 H 0.0 **** 0.06
12936 C 5.392341711072589 82.15618987052676 95.83555493953047 C 0.0 **** -0.24
12937 H 5.634244178429951 81.66490333261055 94.89305120309339 H 0.0 **** 0.06
12938 H 6.314404052541487 82.43857429430352 96.3447677578325 H 0.0 **** 0.06
12939 H 4.823435780572842 81.47268182443491 96.46536468294507 H 0.0 **** 0.06
12940 H 4.7984812940198935 83.04828530332429 95.6383543878091 H 0.0 **** 0.06
12941 C 83.63109449394611 72.31060529476298 56.1646906803566 C 0.0 **** -0.24
12942 H 82.63743752500409 72.39970733444886 56.602558408398835 H 0.0 **** 0.06
12943 H 83.54465224908714 72.23837708608275 55.0803478377762 H 0.0 **** 0.06
12944 H 84.11911395134791 71.41623966709773 56.55157524497649 H 0.0 **** 0.06
12945 H 84.2230284393516 73.1889970362032 56.424692199140054 H 0.0 **** 0.06
12946 C 78.6590047927454 99.04708419944377 76.58759161625488 C 0.0 **** -0.24
12947 H 79.5247819685747 98.62207077242132 76.08021601938492 H 0.0 **** 0.06
12948 H 78.38552724229152 99.98867729401589 76.11112436115215 H 0.0 **** 0.06
12949 H 78.90295131055672 99.22645185310873 77.63485563017242 H 0.0 **** 0.06
12950 H 77.82244281607746 98.35131252354176 76.5232380087092 H 0.0 **** 0.06
12951 C 18.140369739017785 32.260442659611954 67.93796869937482 C 0.0 **** -0.24
12952 H 17.75574732565167 32.61485107342429 68.89522620425294 H 0.0 **** 0.06
12953 H 17.934851947143756 33.00373062555073 67.16684415571208 H 0.0 **** 0.06
12954 H 17.653016713066677 31.321782930538006 67.67701963366011 H 0.0 **** 0.06
12955 H 19.216187691238645 32.10295255285669 68.0149761986104 H 0.0 **** 0.06
12956 C 47.459150021370476 58.442513403513814 43.76647024709956 C 0.0 **** -0.24
12957 H 46.72771987492666 58.649714768236095 42.98568919100137 H 0.0 **** 0.06
12958 H 48.44044119979907 58.294314192111486 43.31458616083839 H 0.0 **** 0.06
12959 H 47.168582606124744 57.54226573662561 44.307297602094565 H 0.0 **** 0.06
12960 H 47.499856404631345 59.28375891708224 44.45830803446398 H 0.0 **** 0.06
12961 C 52.269995381932176 30.929477841880328 68.97646315266422 C 0.0 **** -0.24
12962 H 52.68281719971341 31.1358611906806 67.98901360330575 H 0.0 **** 0.06
12963 H 52.167440821198795 29.85226675354977 69.1098363912123 H 0.0 **** 0.06
12964 H 51.29073138306421 31.401617360869295 69.06598941036316 H 0.0 **** 0.06
12965 H 52.9375874343516 31.328764875780223 69.74019562346501 H 0.0 **** 0.06
12966 C 107.02072500481023 99.92338397098251 84.36093697697807 C 0.0 **** -0.24
12967 H 107.06106204141403 99.1543479954176 85.13205961411342 H 0.0 **** 0.06
12968 H 107.8442222107754 100.62307765235947 84.50170141064568 H 0.0 **** 0.06
12969 H 106.07286157091957 100.45745353240227 84.43052283751719 H 0.0 **** 0.06
12970 H 107.10283060419547 99.45656963337973 83.37849222101885 H 0.0 **** 0.06
12971 C 27.37948405058347 101.20447081690855 85.126709335762 C 0.0 **** -0.24
12972 H 28.336245609700313 100.70322765507115 84.98071907171514 H 0.0 **** 0.06
12973 H 27.163550834706598 101.27197743830166 86.19317559450883 H 0.0 **** 0.06
12974 H 26.591841720727814 100.6365927949746 84.63152990906615 H 0.0 **** 0.06
12975 H 27.426469129315876 102.20700881811712 84.70106919087348 H 0.0 **** 0.06
12976 C 77.29590713111713 92.06014413553248 104.43886889429592 C 0.0 **** -0.24
12977 H 77.48880462916918 91.10306142872969 104.92416966453573 H 0.0 **** 0.06
12978 H 77.85943978101653 92.84420038714393 104.94540452562063 H 0.0 **** 0.06
12979 H 76.2305204396119 92.28537275534569 104.49257040489509 H 0.0 **** 0.06
12980 H 77.6039106790671 92.00673467363953 103.3946094421927 H 0.0 **** 0.06
12981 C 91.04510017649773 30.713597384214296 82.08920630652153 C 0.0 **** -0.24
12982 H 91.71379741022861 30.61534824827484 81.2337773512831 H 0.0 **** 0.06
12983 H 91.63243251470027 30.887514665846368 82.99119915422162 H 0.0 **** 0.06
12984 H 90.46436830354031 29.798439666903704 82.20250401041781 H 0.0 **** 0.06
12985 H 90.37032858056915 31.55431266369385 81.92647740752128 H 0.0 **** 0.06
12986 C 60.70610464650264 81.78880699288064 56.0999259937945 C 0.0 **** -0.24
12987 H 61.13764072846379 81.76899337362332 57.101335330900625 H 0.0 **** 0.06
12988 H 59.69933067222445 82.20237050827521 56.146647125772645 H 0.0 **** 0.06
12989 H 60.665864996758046 80.774621477675 55.702874296119944 H 0.0 **** 0.06
12990 H 61.32460921047766 82.40883722258859 55.451009072026125 H 0.0 **** 0.06
12991 C 2.333402022487064 12.111445146289405 31.04340510551178 C 0.0 **** -0.24
12992 H 2.873994651241645 11.17041461100802 31.149705392589595 H 0.0 **** 0.06
12993 H 1.813064672436468 12.124738212506763 30.08583689534042 H 0.0 **** 0.06
12994 H 3.0390648266066194 12.94097177605439 31.085844693355085 H 0.0 **** 0.06
12995 H 1.609978651293119 12.20747690121927 31.852402646792854 H 0.0 **** 0.06
12996 C 77.98463848921298 86.72545070467658 103.26975340549527 C 0.0 **** -0.24
12997 H 78.069702982482 87.64469378103001 103.84987217893897 H 0.0 **** 0.06
12998 H 78.87355602567806 86.11490346540899 103.42631712821728 H 0.0 **** 0.06
12999 H 77.89251898447228 86.9703020583022 102.21214180296528 H 0.0 **** 0.06
13000 H 77.10152796612184 86.1734919867169 103.59383212312659 H 0.0 **** 0.06
13001 C 99.18572965919604 38.6452551922693 88.76945460208253 C 0.0 **** -0.24
13002 H 98.16039076645517 38.71050219136936 89.13148699755038 H 0.0 **** 0.06
13003 H 99.63677702877581 37.7169432990419 89.12046866352624 H 0.0 **** 0.06
13004 H 99.75836088143868 39.492950109053766 89.14674415596237 H 0.0 **** 0.06
13005 H 99.18754656230944 38.661443587596324 87.67967151499101 H 0.0 **** 0.06
13006 C 79.05891667354103 16.19624954061527 109.61692411608375 C 0.0 **** -0.24
13007 H 79.6369449317331 15.452719101807645 109.06795199834558 H 0.0 **** 0.06
13008 H 79.28876387609847 17.190656172083123 109.23336928570187 H 0.0 **** 0.06
13009 H 79.31627913108966 16.146147947749313 110.67496379168388 H 0.0 **** 0.06
13010 H 77.99535897748132 15.995094696744076 109.49159149484304 H 0.0 **** 0.06
13011 C 67.91200444480813 76.49084437101104 35.094079193300786 C 0.0 **** -0.24
13012 H 68.75529939221639 77.03552059277746 34.668258740140516 H 0.0 **** 0.06
13013 H 68.2433228700055 75.50443052590279 35.418275691138575 H 0.0 **** 0.06
13014 H 67.1306712019973 76.38397959990046 34.341154975355664 H 0.0 **** 0.06
13015 H 67.51864562900897 77.04184029021738 35.94914233155541 H 0.0 **** 0.06
13016 C 89.31978972645607 103.96072067273468 5.794406682745942 C 0.0 **** -0.24
13017 H 90.02590819875252 103.1842380949346 6.089162651376469 H 0.0 **** 0.06
13018 H 88.39364767509733 103.84098265864607 6.358751792269221 H 0.0 **** 0.06
13019 H 89.1098757712789 103.87569265442556 4.728456454137538 H 0.0 **** 0.06
13020 H 89.7492107357698 104.94017100313796 6.004338061451049 H 0.0 **** 0.06
13021 C 79.33445107291149 71.82057676444515 53.33425308049203 C 0.0 **** -0.24
13022 H 78.4042431764076 72.29759332506615 53.02481156457878 H 0.0 **** 0.06
13023 H 79.51840823733147 72.03243909658548 54.3877153204873 H 0.0 **** 0.06
13024 H 80.15739850813617 72.20832527569922 52.734688149671285 H 0.0 **** 0.06
13025 H 79.25526434498978 70.74301708942778 53.18883235082575 H 0.0 **** 0.06
13026 C 71.80854216008352 12.192330294844481 96.9131236882997 C 0.0 **** -0.24
13027 H 71.4321623092894 13.182522788641222 96.65957785005807 H 0.0 **** 0.06
13028 H 72.50489844003421 12.271779478433501 97.74878713459027 H 0.0 **** 0.06
13029 H 72.32150051335782 11.766082801915402 96.0509257051377 H 0.0 **** 0.06
13030 H 70.97513627240426 11.547758016535056 97.1950453778969 H 0.0 **** 0.06
13031 C 16.939055992790912 62.16761996197053 72.97455228967294 C 0.0 **** -0.24
13032 H 17.61261688327562 62.370891571876115 73.80638031729046 H 0.0 **** 0.06
13033 H 16.470477268667963 61.1929582038412 73.11639755307709 H 0.0 **** 0.06
13034 H 17.504557398732686 62.16709251474299 72.04185484270317 H 0.0 **** 0.06
13035 H 16.169722893400774 62.93905943223734 72.93290717578935 H 0.0 **** 0.06
13036 C 46.09314850224325 93.92863789300662 1.9838598166360537 C 0.0 **** -0.24
13037 H 46.14865665429687 94.91511323786506 1.5232495597438387 H 0.0 **** 0.06
13038 H 46.995664958625184 93.36488460769999 1.7439016171251325 H 0.0 **** 0.06
13039 H 45.220643693128466 93.39840000497401 1.603368499467944 H 0.0 **** 0.06
13040 H 46.01014893699369 94.03722824247956 3.0656226405333005 H 0.0 **** 0.06
13041 C 4.8541529890034365 101.2717055130197 31.596642101959162 C 0.0 **** -0.24
13042 H 3.902574403098333 101.08408540242769 32.09613640843986 H 0.0 **** 0.06
13043 H 5.660560752759093 101.24334579237097 32.32977157612055 H 0.0 **** 0.06
13044 H 4.827639130323334 102.25347085326013 31.122931815688617 H 0.0 **** 0.06
13045 H 5.023036399104127 100.50637332981628 30.839445582692008 H 0.0 **** 0.06
13046 C 75.57344259655578 28.72924277541395 28.49543261837823 C 0.0 **** -0.24
13047 H 75.46327034685423 28.020397124073156 29.31680618601189 H 0.0 **** 0.06
13048 H 75.00205974808773 29.630771859782186 28.713733868066242 H 0.0 **** 0.06
13049 H 75.20393591331013 28.277879795825527 27.57420795944614 H 0.0 **** 0.06
13050 H 76.62622937809519 28.986183971940022 28.37703589125971 H 0.0 **** 0.06
13051 C 11.912190402108322 108.6325616372547 94.90690693345354 C 0.0 **** -0.24
13052 H 11.317830695579744 109.49828394465443 94.61514167441428 H 0.0 **** 0.06
13053 H 12.709323309522546 108.47838450391957 94.1793980922956 H 0.0 **** 0.06
13054 H 11.27442153562987 107.74863293616504 94.94051558357239 H 0.0 **** 0.06
13055 H 12.346062421813826 108.80434545166055 95.89195766537028 H 0.0 **** 0.06
13056 C 67.28839250444253 58.652336839632426 112.71116588854272 C 0.0 **** -0.24
13057 H 66.74263394734834 58.705864369617416 111.76922961309378 H 0.0 **** 0.06
13058 H 67.03728999785932 59.51700715005654 113.32563260813345 H 0.0 **** 0.06
13059 H 68.36002707820651 58.64740392056024 112.50879831887244 H 0.0 **** 0.06
13060 H 67.01482664554104 57.73819423866399 113.23840075181704 H 0.0 **** 0.06
13061 C 106.91075973177652 51.46574185943872 58.482539610268844 C 0.0 **** -0.24
13062 H 106.89820142726842 50.675924576870955 57.73272336962921 H 0.0 **** 0.06
13063 H 107.1951081254781 51.046322240612426 59.448080796124316 H 0.0 **** 0.06
13064 H 105.917968652421 51.91009523370718 58.55825319068276 H 0.0 **** 0.06
13065 H 107.62975436973335 52.23141847643183 58.192261214141155 H 0.0 **** 0.06
13066 C 17.033812165469328 44.69689809086516 51.00231971445325 C 0.0 **** -0.24
13067 H 17.851459019519666 44.45194864547054 51.68067874945197 H 0.0 **** 0.06
13068 H 16.488545248573416 45.55818483605313 51.38849285569775 H 0.0 **** 0.06
13069 H 16.358323081392825 43.84422819162917 50.924126551529156 H 0.0 **** 0.06
13070 H 17.43745408754515 44.93265103216943 50.01830028908253 H 0.0 **** 0.06
13071 C 15.222274564607545 33.312259164631485 4.70197474876251 C 0.0 **** -0.24
13072 H 14.716939528509442 33.11055602891534 3.7581729544523625 H 0.0 **** 0.06
13073 H 14.68424873799242 34.08923413414294 5.24403618223937 H 0.0 **** 0.06
13074 H 16.241435153134432 33.64507560491941 4.5041099095382435 H 0.0 **** 0.06
13075 H 15.247082612846242 32.40182982197655 5.301192199139649 H 0.0 **** 0.06
13076 C 11.025224453211639 98.60039951756664 48.449394771958055 C 0.0 **** -0.24
13077 H 9.996423345808232 98.24503241440652 48.513113653866014 H 0.0 **** 0.06
13078 H 11.088686849736504 99.60505619522257 48.86913888515937 H 0.0 **** 0.06
13079 H 11.336820319214151 98.6221037324888 47.40505263271962 H 0.0 **** 0.06
13080 H 11.676625408438866 97.93005461470977 49.00996595460214 H 0.0 **** 0.06
13081 C 37.79272577616874 55.85186336894127 84.65325373402072 C 0.0 **** -0.24
13082 H 37.14959633153387 56.720693282251034 84.51097341675171 H 0.0 **** 0.06
13083 H 37.774528583627045 55.2363140683589 83.75312899163251 H 0.0 **** 0.06
13084 H 37.43133543512832 55.26836607720042 85.50042875988481 H 0.0 **** 0.06
13085 H 38.81242451744777 56.18294029680246 84.84741099421748 H 0.0 **** 0.06
13086 C 26.733375036388374 83.6063821834376 105.77127712618432 C 0.0 **** -0.24
13087 H 25.97753683675326 83.60192393535809 104.98648527903612 H 0.0 **** 0.06
13088 H 27.625651794111718 84.1208786043036 105.41281758029919 H 0.0 **** 0.06
13089 H 26.987181464289307 82.58021234766485 106.03686197577059 H 0.0 **** 0.06
13090 H 26.3436469416121 84.1228490820846 106.64815595306573 H 0.0 **** 0.06
13091 C 73.89037124438812 67.33030042458466 67.64378156075617 C 0.0 **** -0.24
13092 H 73.28456181242893 66.59750462686122 67.11117403145164 H 0.0 **** 0.06
13093 H 74.84796103611723 67.4496254645253 67.13551001676677 H 0.0 **** 0.06
13094 H 74.06097546628234 66.9870557113723 68.66418041531728 H 0.0 **** 0.06
13095 H 73.36798666272387 68.28701589557991 67.66426177948921 H 0.0 **** 0.06
13096 C 48.24300652210201 65.54874627719266 3.199107203544539 C 0.0 **** -0.24
13097 H 48.52640731389414 64.98671385947296 4.089608280763388 H 0.0 **** 0.06
13098 H 48.39748317020758 64.93053050825455 2.3155107412970377 H 0.0 **** 0.06
13099 H 48.85739500473022 66.44673179168069 3.1275501512803814 H 0.0 **** 0.06
13100 H 47.19303867487048 65.8314357226808 3.26715635706525 H 0.0 **** 0.06
13101 C 42.78802161074924 52.61812239246689 101.4813349128845 C 0.0 **** -0.24
13102 H 42.156913025381925 51.768509871356855 101.74115609302945 H 0.0 **** 0.06
13103 H 42.25809197743558 53.264331735994176 100.7809488261156 H 0.0 **** 0.06
13104 H 43.70800961701852 52.25965575295959 101.020256552061 H 0.0 **** 0.06
13105 H 43.02914752399873 53.1813889589248 102.38399971406793 H 0.0 **** 0.06
13106 C 27.005473249960758 76.22179985515811 28.80494303838794 C 0.0 **** -0.24
13107 H 27.383573347780917 76.26258365925224 27.783755242613445 H 0.0 **** 0.06
13108 H 27.309891571098106 77.1207906647503 29.341292353861682 H 0.0 **** 0.06
13109 H 27.411127383604438 75.34379745707983 29.307593082498407 H 0.0 **** 0.06
13110 H 25.91730069735967 76.1600276395503 28.78713147457853 H 0.0 **** 0.06
13111 C 79.77463604031126 96.67701835588923 23.619348527240078 C 0.0 **** -0.24
13112 H 80.20928237789059 96.30291455690997 24.54666697419873 H 0.0 **** 0.06
13113 H 80.440954295263 97.41852627234778 23.17842727115 H 0.0 **** 0.06
13114 H 78.80851405645683 97.13511227986595 23.830345692787972 H 0.0 **** 0.06
13115 H 79.6391005351393 95.84874961076525 22.922872651846873 H 0.0 **** 0.06
13116 C 20.32773196029183 50.58505471985235 12.464674080596808 C 0.0 **** -0.24
13117 H 20.086830389361808 49.66966846453968 13.005121106464571 H 0.0 **** 0.06
13118 H 20.479889039219273 51.39712057038247 13.175852572611433 H 0.0 **** 0.06
13119 H 19.505700896257906 50.83691789125771 11.794432748439931 H 0.0 **** 0.06
13120 H 21.238111221131845 50.43447456604943 11.884121933274685 H 0.0 **** 0.06
13121 C 30.363381948296137 55.24779063261613 2.460474600218788 C 0.0 **** -0.24
13122 H 30.46219496843659 54.90258179867479 3.4894038374350203 H 0.0 **** 0.06
13123 H 29.44680981930523 54.84474419292556 2.0289926313252806 H 0.0 **** 0.06
13124 H 31.22035558999478 54.90543947785926 1.879926196361282 H 0.0 **** 0.06
13125 H 30.32544131862204 56.33651392784964 2.4444875040333898 H 0.0 **** 0.06
13126 C 64.2431736579523 104.0930935176506 112.7933851460306 C 0.0 **** -0.24
13127 H 63.424088692183375 103.95730601449984 112.08713934742224 H 0.0 **** 0.06
13128 H 64.73317830900297 103.13524605552837 112.96903893630397 H 0.0 **** 0.06
13129 H 63.85201852664525 104.47963820274994 113.7340999709294 H 0.0 **** 0.06
13130 H 64.96442807867533 104.8006676172738 112.38194787905206 H 0.0 **** 0.06
13131 C 18.12609535742253 47.046926234415196 73.81055159229987 C 0.0 **** -0.24
13132 H 17.332566899730594 47.78030733483027 73.66837465167015 H 0.0 **** 0.06
13133 H 19.040777131062057 47.40368061230838 73.33532299980874 H 0.0 **** 0.06
13134 H 17.828885248894437 46.09899529990322 73.3600743481303 H 0.0 **** 0.06
13135 H 18.301626755191606 46.902424394565855 74.87610048514219 H 0.0 **** 0.06
13136 C 104.15305888044372 10.862070690776136 33.405728617512466 C 0.0 **** -0.24
13137 H 103.54544097678581 11.743241415936154 33.61088750825013 H 0.0 **** 0.06
13138 H 103.80436896214684 10.030267185946968 34.01692397419737 H 0.0 **** 0.06
13139 H 105.19550739803398 11.076572206511372 33.64384374999014 H 0.0 **** 0.06
13140 H 104.06830636885573 10.599929092681236 32.35155961036298 H 0.0 **** 0.06
13141 C 44.880820115926895 34.80837920746133 43.927759352615 C 0.0 **** -0.24
13142 H 44.41832837066764 34.735205564144536 42.943419694830254 H 0.0 **** 0.06
13143 H 45.349620503428355 33.856933362022275 44.18012137139624 H 0.0 **** 0.06
13144 H 44.11869229824583 35.04693347752358 44.66995786547125 H 0.0 **** 0.06
13145 H 45.636567218585526 35.594410435704134 43.91654163021559 H 0.0 **** 0.06
13146 C 81.4467104676195 74.63617190211374 40.30627749896082 C 0.0 **** -0.24
13147 H 82.29994057666916 74.14354257506812 39.83840105580659 H 0.0 **** 0.06
13148 H 80.71931180317306 73.88447575598207 40.61613836857438 H 0.0 **** 0.06
13149 H 80.98456404697399 75.31692865423491 39.59222468930865 H 0.0 **** 0.06
13150 H 81.78385384843408 75.19623760062262 41.178554011378075 H 0.0 **** 0.06
13151 C 110.71388671650462 113.46428639267 44.252637211930654 C 0.0 **** -0.24
13152 H 111.32691691158612 113.59001637137584 45.14553113079538 H 0.0 **** 0.06
13153 H 110.70512341594767 114.39524745375347 43.68534250097629 H 0.0 **** 0.06
13154 H 109.6962676526972 113.20712261089511 44.54439517779288 H 0.0 **** 0.06
13155 H 111.12892298520745 112.66694591825706 43.636455750020666 H 0.0 **** 0.06
13156 C 27.7226681335531 69.17130004023876 56.65762921991325 C 0.0 **** -0.24
13157 H 27.365839583296264 69.43572907385409 57.65316135860553 H 0.0 **** 0.06
13158 H 28.31480365928121 69.9937728702264 56.2547860876378 H 0.0 **** 0.06
13159 H 26.870982128047956 68.98219489365796 56.005353465427504 H 0.0 **** 0.06
13160 H 28.339499513758653 68.2753812651535 56.71928216456013 H 0.0 **** 0.06
13161 C 58.974135256646946 111.54932540851976 58.67370277258004 C 0.0 **** -0.24
13162 H 58.235017129730906 112.34895613004461 58.63340868146349 H 0.0 **** 0.06
13163 H 58.603795834333425 110.7431151929441 59.30631822504944 H 0.0 **** 0.06
13164 H 59.906049878739125 111.93636171977226 59.0872286498427 H 0.0 **** 0.06
13165 H 59.15294433604339 111.16936087970795 57.66824875695704 H 0.0 **** 0.06
13166 C 0.7654468582520764 112.83562032293861 47.693473342998516 C 0.0 **** -0.24
13167 H 1.5124722306061074 113.62571295538504 47.77095424629712 H 0.0 **** 0.06
13168 H -0.1795348929032059 113.18670742292935 48.108033221548936 H 0.0 **** 0.06
13169 H 1.1046263679819788 111.96085815907551 48.24896502783747 H 0.0 **** 0.06
13170 H 0.6271306834988195 112.56862835675432 46.64641011499043 H 0.0 **** 0.06
13171 C 27.871225283399895 13.37997980938718 52.530148547435864 C 0.0 **** -0.24
13172 H 27.28141318335838 12.47249216876321 52.65500590719388 H 0.0 **** 0.06
13173 H 28.89688845796249 13.11438868855626 52.27452392097943 H 0.0 **** 0.06
13174 H 27.863850983937112 13.94849707291442 53.461286785821166 H 0.0 **** 0.06
13175 H 27.443072254595847 13.986035624292299 51.73169135376784 H 0.0 **** 0.06
13176 C 48.59264291523715 54.566902536213064 79.39279722826743 C 0.0 **** -0.24
13177 H 48.99862240495162 54.51452011339924 80.40300279570295 H 0.0 **** 0.06
13178 H 49.38823525233897 54.37477123558557 78.6714123973552 H 0.0 **** 0.06
13179 H 48.17731577801851 55.559686472358905 79.21901002610929 H 0.0 **** 0.06
13180 H 47.80777639760771 53.81976751453671 79.27608669523568 H 0.0 **** 0.06
13181 C 86.94105050847796 11.685117003885921 36.84150750924164 C 0.0 **** -0.24
13182 H 86.34656302517308 12.422475178165712 37.38012431086983 H 0.0 **** 0.06
13183 H 86.36232271684283 11.290846088133378 36.005779573300714 H 0.0 **** 0.06
13184 H 87.20666010837098 10.870096915410386 37.5164360068425 H 0.0 **** 0.06
13185 H 87.84953265776014 12.155107304009135 36.465801752581655 H 0.0 **** 0.06
13186 C 93.47958754260071 60.64075985469378 46.55903526340995 C 0.0 **** -0.24
13187 H 93.75115904479009 61.295453438927666 45.73163830961005 H 0.0 **** 0.06
13188 H 94.36123376677864 60.436173789252535 47.16664372702451 H 0.0 **** 0.06
13189 H 93.08322164837546 59.70450495777942 46.16661026954756 H 0.0 **** 0.06
13190 H 92.72069318147405 61.12650266769457 47.17253899688404 H 0.0 **** 0.06
13191 C 20.374981715171856 16.504986193278228 12.985884313140481 C 0.0 **** -0.24
13192 H 19.710338879029877 16.970511886576617 12.257900589637103 H 0.0 **** 0.06
13193 H 20.884314695222145 15.65829541365433 12.525114064124299 H 0.0 **** 0.06
13194 H 19.79203929466513 16.157317978084535 13.839581320131202 H 0.0 **** 0.06
13195 H 21.111754827690646 17.234133443183737 13.323532421620541 H 0.0 **** 0.06
13196 C 113.8180476233261 25.930918550237244 2.8955990200166184 C 0.0 **** -0.24
13197 H 113.85212111636964 26.502563807639632 1.9679933563176917 H 0.0 **** 0.06
13198 H 113.50937505335172 24.907166770921236 2.6805056011734507 H 0.0 **** 0.06
13199 H 113.10274067682585 26.390169993683926 3.5782450962154257 H 0.0 **** 0.06
13200 H 114.8062880123519 25.923883166415308 3.3541640922796603 H 0.0 **** 0.06
13201 C 49.43160866905811 18.319975583034022 65.56951726750333 C 0.0 **** -0.24
13202 H 49.5326668433313 18.372545663328196 64.48549642601472 H 0.0 **** 0.06
13203 H 50.39041674191441 18.546205107965307 66.03561147986397 H 0.0 **** 0.06
13204 H 49.11444742602913 17.316747217586624 65.8562405018526 H 0.0 **** 0.06
13205 H 48.68621877121808 19.04383707917924 65.90003508809161 H 0.0 **** 0.06
13206 C 61.587498338782154 57.855780455482545 75.79610819976256 C 0.0 **** -0.24
13207 H 60.80815113273172 58.20662342880419 76.47272678140973 H 0.0 **** 0.06
13208 H 62.13720928812654 58.7112921519998 75.40125345318518 H 0.0 **** 0.06
13209 H 61.13251811263348 57.30502790300834 74.97291856989307 H 0.0 **** 0.06
13210 H 62.27141991856854 57.20236728333494 76.33668195598553 H 0.0 **** 0.06
13211 C 64.74688701310436 101.89226353570795 63.8595658363235 C 0.0 **** -0.24
13212 H 64.03308485737972 101.56612717088292 63.103301271652086 H 0.0 **** 0.06
13213 H 64.40743932137701 101.57042097495112 64.843545065468 H 0.0 **** 0.06
13214 H 64.82456253951949 102.97985197491523 63.840213336483544 H 0.0 **** 0.06
13215 H 65.72322961611914 101.45518730204172 63.649792024705704 H 0.0 **** 0.06
13216 C 61.93881138796419 85.74610917772128 4.985977606716716 C 0.0 **** -0.24
13217 H 62.33733749334756 86.54921176977268 5.607041053156593 H 0.0 **** 0.06
13218 H 61.45727920446815 86.1744352046313 4.105954754599509 H 0.0 **** 0.06
13219 H 61.20898067922799 85.17300636326416 5.557203319328295 H 0.0 **** 0.06
13220 H 62.75211300637504 85.09204155626742 4.672903284245592 H 0.0 **** 0.06
13221 C 29.65914604661279 106.40375479666689 96.08203893474487 C 0.0 **** -0.24
13222 H 29.374174903223633 105.57470414905956 96.72979739784742 H 0.0 **** 0.06
13223 H 28.894349679953024 106.54779887159452 95.3187890527207 H 0.0 **** 0.06
13224 H 30.613261086720172 106.1784193237255 95.60292400638765 H 0.0 **** 0.06
13225 H 29.756342302084363 107.31263186406694 96.67543247279691 H 0.0 **** 0.06
13226 C 31.80806601027288 53.95515188269894 104.26833456286184 C 0.0 **** -0.24
13227 H 32.27352904714945 54.83662497595424 103.82682133688951 H 0.0 **** 0.06
13228 H 32.536534653554526 53.433041598321154 104.88984153979374 H 0.0 **** 0.06
13229 H 31.462927622425298 53.292012769488906 103.4764965506355 H 0.0 **** 0.06
13230 H 30.96047484108007 54.260969433006665 104.88201967356227 H 0.0 **** 0.06
13231 C 75.81319429573053 74.05527391226424 2.86220166620987 C 0.0 **** -0.24
13232 H 75.14120923381554 74.28218223080907 3.688940535083333 H 0.0 **** 0.06
13233 H 75.35097410589083 73.31294238457701 2.2113245910274486 H 0.0 **** 0.06
13234 H 76.7511015559539 73.66188125668799 3.254035477758279 H 0.0 **** 0.06
13235 H 76.01053117892687 74.96496096184883 2.2941037491987117 H 0.0 **** 0.06
13236 C 16.355217460733314 107.89701595822544 29.270857829729607 C 0.0 **** -0.24
13237 H 16.194759400375972 107.16274075004156 30.059833522069198 H 0.0 **** 0.06
13238 H 16.295379043198608 107.40570318139613 28.30010315963176 H 0.0 **** 0.06
13239 H 17.339952037047112 108.34996727845251 29.39019988899355 H 0.0 **** 0.06
13240 H 15.589918386724918 108.67147416730408 29.334264790357167 H 0.0 **** 0.06
13241 C 76.96214894160946 45.21891853997937 115.4616701301625 C 0.0 **** -0.24
13242 H 77.7125396186768 45.13998607992281 114.67520650238849 H 0.0 **** 0.06
13243 H 76.59779871350771 44.22332955220287 115.71704846388404 H 0.0 **** 0.06
13244 H 76.13149015729336 45.830864958020754 115.1100892455522 H 0.0 **** 0.06
13245 H 77.40659995021961 45.6808374800672 116.34274203198362 H 0.0 **** 0.06
13246 C 93.78002280422362 107.69773585113639 55.1335046823624 C 0.0 **** -0.24
13247 H 94.58251453578117 107.09436872117645 55.55832076582317 H 0.0 **** 0.06
13248 H 94.20128178146166 108.41712063848594 54.43049186712216 H 0.0 **** 0.06
13249 H 93.26409950841821 108.22940429513928 55.93184061653682 H 0.0 **** 0.06
13250 H 93.07577348344856 107.04899284050403 54.61308088371885 H 0.0 **** 0.06
13251 C 18.81217846231374 59.65579730798066 13.925394244316735 C 0.0 **** -0.24
13252 H 19.79908680494674 59.95114783048433 13.566907649148746 H 0.0 **** 0.06
13253 H 18.8897107906634 59.312766308548305 14.957916457736829 H 0.0 **** 0.06
13254 H 18.426295952107125 58.85025227029706 13.301863692385574 H 0.0 **** 0.06
13255 H 18.137492093229838 60.51040666887303 13.875197666599266 H 0.0 **** 0.06
13256 C 41.16376595042715 96.01447704637074 0.366723297998476 C 0.0 **** -0.24
13257 H 40.37688414746506 96.24149533799988 -0.3532915189632604 H 0.0 **** 0.06
13258 H 41.47340942480105 94.97590803755052 0.2519153578706437 H 0.0 **** 0.06
13259 H 40.786240742682025 96.17125584740423 1.377425879808328 H 0.0 **** 0.06
13260 H 42.01651877940324 96.67020533619129 0.19186462288087114 H 0.0 **** 0.06
13261 C 59.24778224076073 38.354305908577544 80.11332313010791 C 0.0 **** -0.24
13262 H 59.30215819209093 37.96954823420967 81.13156638478097 H 0.0 **** 0.06
13263 H 58.21503245403835 38.61538999685541 79.87959550482316 H 0.0 **** 0.06
13264 H 59.59547684364841 37.591294590282814 79.41773080802659 H 0.0 **** 0.06
13265 H 59.8763687736876 39.24036134648901 80.0248738109317 H 0.0 **** 0.06
13266 C 52.94533445344851 34.473410442337666 65.36620743365535 C 0.0 **** -0.24
13267 H 52.2619130079442 34.55678366319901 64.52180259749662 H 0.0 **** 0.06
13268 H 53.816907899658425 35.105676815518564 65.19261135973989 H 0.0 **** 0.06
13269 H 53.2648222010496 33.43661304614237 65.47337233193485 H 0.0 **** 0.06
13270 H 52.43909071060307 34.79434318851793 66.27706859074596 H 0.0 **** 0.06
13271 C 11.584814724515667 59.07286143171984 40.11385579160301 C 0.0 **** -0.24
13272 H 11.415664186582262 59.50376292751423 39.12664477342531 H 0.0 **** 0.06
13273 H 12.578825144311793 59.350524163395505 40.46518935752238 H 0.0 **** 0.06
13274 H 11.509503461420394 57.98730922773973 40.053240931365046 H 0.0 **** 0.06
13275 H 10.835210129224834 59.45155783166723 40.80768751683191 H 0.0 **** 0.06
13276 C 65.01480391680684 26.728041280613652 114.5685965575953 C 0.0 **** -0.24
13277 H 65.04525352416101 27.658331768536186 115.13568912112207 H 0.0 **** 0.06
13278 H 65.97065179175195 26.21253987088526 114.66343171178639 H 0.0 **** 0.06
13279 H 64.82370076292051 26.94875089816822 113.5179222679317 H 0.0 **** 0.06
13280 H 64.2179965307381 26.092049875946373 114.95587494452853 H 0.0 **** 0.06
13281 C 59.05623396020019 98.49087899599903 8.358753314670736 C 0.0 **** -0.24
13282 H 59.14002664277672 97.63425920546092 9.028638348143176 H 0.0 **** 0.06
13283 H 60.03699985862306 98.9484890039601 8.230710882057394 H 0.0 **** 0.06
13284 H 58.36711081279768 99.21955268408098 8.785099970731778 H 0.0 **** 0.06
13285 H 58.68045932726261 98.15900581232091 7.390629769787267 H 0.0 **** 0.06
13286 C 68.88435915115213 26.882483623829046 50.519200658847964 C 0.0 **** -0.24
13287 H 68.86264075966534 27.85882549430712 50.03584326029343 H 0.0 **** 0.06
13288 H 69.01322168852954 26.10665472977712 49.7631069830081 H 0.0 **** 0.06
13289 H 67.94688420543721 26.718417363729444 51.05095677545401 H 0.0 **** 0.06
13290 H 69.71413188006514 26.84461262588904 51.22395272618205 H 0.0 **** 0.06
13291 C 15.519341474780674 13.845036209127642 46.49618484232832 C 0.0 **** -0.24
13292 H 15.010581280840995 13.103275260761308 45.88048417119347 H 0.0 **** 0.06
13293 H 16.423910135124174 14.178674910490827 45.988294818599286 H 0.0 **** 0.06
13294 H 15.783378299731083 13.399949684469036 47.4555419705008 H 0.0 **** 0.06
13295 H 14.858337519244117 14.695667383279357 46.66030032733056 H 0.0 **** 0.06
13296 C 65.73682489254179 74.20933565546022 57.53917348931492 C 0.0 **** -0.24
13297 H 64.85566562641799 73.75885714851074 57.08186064271939 H 0.0 **** 0.06
13298 H 65.42607944940727 74.89346100749256 58.328884407219846 H 0.0 **** 0.06
13299 H 66.2979137447984 74.75792496674273 56.782352739789815 H 0.0 **** 0.06
13300 H 66.36601330428573 73.42630387405762 57.96274844695091 H 0.0 **** 0.06
13301 C 56.825562944200826 33.53877933690342 39.24993610180197 C 0.0 **** -0.24
13302 H 57.302992908784034 33.2639200176078 38.308720074539565 H 0.0 **** 0.06
13303 H 57.00157245841859 32.75509761816079 39.98736285481205 H 0.0 **** 0.06
13304 H 55.75366766607019 33.657143487057766 39.09305409140365 H 0.0 **** 0.06
13305 H 57.24696777746753 34.47770551604992 39.60974741437359 H 0.0 **** 0.06
13306 C 94.12692505757133 36.59536135002071 32.93834148585874 C 0.0 **** -0.24
13307 H 93.35414352025089 35.866688502913405 32.69160846318613 H 0.0 **** 0.06
13308 H 95.10536483908868 36.11633229344375 32.893806662494995 H 0.0 **** 0.06
13309 H 93.95501548378923 36.9802358680638 33.94365251780607 H 0.0 **** 0.06
13310 H 94.09186603090478 37.41788256932779 32.22386316503446 H 0.0 **** 0.06
13311 C 91.86828839986042 55.921501929799206 44.71844499740948 C 0.0 **** -0.24
13312 H 91.04903113565716 56.63504143776754 44.80413884108873 H 0.0 **** 0.06
13313 H 91.61844752455514 55.01523573546598 45.272082783761974 H 0.0 **** 0.06
13314 H 92.77660110598504 56.35933497845144 45.12959542141152 H 0.0 **** 0.06
13315 H 92.02538468675101 55.673764745720575 43.669175472063245 H 0.0 **** 0.06
13316 C 93.68489666363233 33.49639692066435 66.47679068999075 C 0.0 **** -0.24
13317 H 93.58899582443033 32.89527421435207 65.57218684419387 H 0.0 **** 0.06
13318 H 94.38608884266189 33.01546198351616 67.15895832399426 H 0.0 **** 0.06
13319 H 92.7106258491085 33.58390881958698 66.95884531992432 H 0.0 **** 0.06
13320 H 94.05194503380089 34.48895561441981 66.21602206480443 H 0.0 **** 0.06
13321 C 72.26682753619247 60.144204895169935 16.774020957953184 C 0.0 **** -0.24
13322 H 71.68634914944067 59.29034548207861 17.12131970051712 H 0.0 **** 0.06
13323 H 73.32111273932385 59.98283907810128 17.000942511622185 H 0.0 **** 0.06
13324 H 71.92005926673087 61.04740158253139 17.276640193402102 H 0.0 **** 0.06
13325 H 72.13978898927421 60.25623343796846 15.697181426271044 H 0.0 **** 0.06
13326 C 20.308767420930465 46.88038757055699 89.95023588602811 C 0.0 **** -0.24
13327 H 21.006259761223255 46.357148693355555 90.6036171027609 H 0.0 **** 0.06
13328 H 20.467243950851103 47.95616025479529 90.0366301896035 H 0.0 **** 0.06
13329 H 19.286819215283188 46.639153862602484 90.24344867981816 H 0.0 **** 0.06
13330 H 20.47326998464374 46.569939000336774 88.91869475132222 H 0.0 **** 0.06
13331 C 64.82755434721037 70.49221080040672 17.08926667936913 C 0.0 **** -0.24
13332 H 65.345075045165 71.43578652246129 17.26408879894501 H 0.0 **** 0.06
13333 H 65.48733644557643 69.66298932449598 17.34643575787756 H 0.0 **** 0.06
13334 H 64.54700667976101 70.42138776963708 16.038956920846296 H 0.0 **** 0.06
13335 H 63.931806718519056 70.44964167358546 17.709020355290946 H 0.0 **** 0.06
13336 C 54.77394415159188 99.27078093421561 105.08848250697372 C 0.0 **** -0.24
13337 H 53.721214623577566 99.12897834126917 105.33057557677989 H 0.0 **** 0.06
13338 H 55.37690749794649 99.11432926794735 105.98337617508065 H 0.0 **** 0.06
13339 H 54.9287669445861 100.28404363872492 104.7189935397987 H 0.0 **** 0.06
13340 H 55.06977254963169 98.55553195987393 104.32138343542948 H 0.0 **** 0.06
13341 C 28.050586148016947 22.914241054995102 74.29465294442464 C 0.0 **** -0.24
13342 H 27.24311338854801 22.774353835016967 75.01276144225534 H 0.0 **** 0.06
13343 H 28.453164858760516 21.94376234732536 74.00595593203923 H 0.0 **** 0.06
13344 H 28.840601532520566 23.514774101828948 74.74816417775432 H 0.0 **** 0.06
13345 H 27.66692450262272 23.42669241078454 73.41161444765164 H 0.0 **** 0.06
13346 C 61.572147105790705 96.3396752322906 89.21594782068067 C 0.0 **** -0.24
13347 H 62.51527995562367 96.34757433252918 88.67049156393094 H 0.0 **** 0.06
13348 H 60.85433056471592 95.70896761898047 88.69015512953186 H 0.0 **** 0.06
13349 H 61.18248073603489 97.35560617119643 89.2824761428555 H 0.0 **** 0.06
13350 H 61.73520157917747 95.94687237920064 90.21956413820911 H 0.0 **** 0.06
13351 C 43.018484210650634 109.04474084981427 56.403294924847856 C 0.0 **** -0.24
13352 H 43.57414458611831 109.10394737035118 55.467187711311276 H 0.0 **** 0.06
13353 H 43.65763879711751 109.36407141441069 57.226177013680555 H 0.0 **** 0.06
13354 H 42.69739062689093 108.01643730918002 56.57040959180114 H 0.0 **** 0.06
13355 H 42.14473554775709 109.69371039067121 56.348237351641004 H 0.0 **** 0.06
13356 C 69.79607004093073 61.58663924196651 70.45491669881031 C 0.0 **** -0.24
13357 H 68.89816860622174 61.560684900805995 71.07272975125687 H 0.0 **** 0.06
13358 H 70.41836994666633 60.720922915257205 70.68254281274068 H 0.0 **** 0.06
13359 H 70.3537297113575 62.50031517047614 70.66369796298909 H 0.0 **** 0.06
13360 H 69.51399381173178 61.56632522822639 69.40246818753371 H 0.0 **** 0.06
13361 C 80.05377382084063 8.151422281537123 94.9821334785945 C 0.0 **** -0.24
13362 H 80.870032573774 7.573928788824176 95.41519170051555 H 0.0 **** 0.06
13363 H 79.10220139489985 7.76445389904795 95.34690457679096 H 0.0 **** 0.06
13364 H 80.0875297817151 8.069556319591513 93.89578958884181 H 0.0 **** 0.06
13365 H 80.15522494852854 9.196867608520648 95.27110616658612 H 0.0 **** 0.06
13366 C 85.93653509568146 24.316598293682603 20.40871492735329 C 0.0 **** -0.24
13367 H 84.9259695286815 24.418576443175766 20.80288771191068 H 0.0 **** 0.06
13368 H 86.43971453874785 25.28264878333431 20.443948858191796 H 0.0 **** 0.06
13369 H 85.88996076782897 23.968111248222925 19.376152938130545 H 0.0 **** 0.06
13370 H 86.4904275778817 23.595942685132684 21.01054561762209 H 0.0 **** 0.06
13371 C 57.41542522333958 83.03189989019552 6.084734215683328 C 0.0 **** -0.24
13372 H 58.28017486011646 83.69025996733984 5.999091615778243 H 0.0 **** 0.06
13373 H 56.5268879219272 83.62593489176004 6.2976318724220075 H 0.0 **** 0.06
13374 H 57.58012214148039 82.32031414782972 6.8941495853699255 H 0.0 **** 0.06
13375 H 57.27671684824867 82.49120205503095 5.147684334287932 H 0.0 **** 0.06
13376 C 58.40568683343143 72.50022161870751 81.75026864010067 C 0.0 **** -0.24
13377 H 58.240948638266644 72.69392621520421 80.68925566110101 H 0.0 **** 0.06
13378 H 57.44682646421914 72.48827410048443 82.26943109944213 H 0.0 **** 0.06
13379 H 59.03746926573665 73.28361037991993 82.16836137545135 H 0.0 **** 0.06
13380 H 58.897284255010845 71.5345627477636 81.86994109319772 H 0.0 **** 0.06
13381 C 79.62292622411249 61.9778101547941 30.4297978642999 C 0.0 **** -0.24
13382 H 78.85989986047798 62.11778562662582 29.663733753851204 H 0.0 **** 0.06
13383 H 80.4521643343108 62.66022226361116 30.24478058605493 H 0.0 **** 0.06
13384 H 79.98272135731477 60.94981303539981 30.3988642782833 H 0.0 **** 0.06
13385 H 79.19396533731287 62.18429351769731 31.410228239334344 H 0.0 **** 0.06
13386 C 80.97100707925438 56.90994146775432 0.16406290755918462 C 0.0 **** -0.24
13387 H 81.9578320750332 57.362019274161526 0.2604766211244396 H 0.0 **** 0.06
13388 H 80.48579406781033 57.285177526602865 -0.7376043549804621 H 0.0 **** 0.06
13389 H 80.36773032227347 57.166329447564806 1.0350674570104275 H 0.0 **** 0.06
13390 H 81.07247780771581 55.82691659315145 0.0990219174401119 H 0.0 **** 0.06
13391 C 4.5228828877533385 13.968185873325599 80.12198318421987 C 0.0 **** -0.24
13392 H 5.040667869674669 14.534983798161075 79.347577971342 H 0.0 **** 0.06
13393 H 4.26264883499859 14.632439021952194 80.9457528820547 H 0.0 **** 0.06
13394 H 5.174587761121428 13.173628799629821 80.48702487586236 H 0.0 **** 0.06
13395 H 3.615418483418818 13.530561491004914 79.70545247484164 H 0.0 **** 0.06
13396 C 94.35653355798844 2.0350659174426653 90.64317595166435 C 0.0 **** -0.24
13397 H 93.82751405219742 1.5042799582345197 91.43535790144173 H 0.0 **** 0.06
13398 H 93.73079613386506 2.075835887419686 89.75262334969864 H 0.0 **** 0.06
13399 H 95.28387706837086 1.5107303015946059 90.4124819325347 H 0.0 **** 0.06
13400 H 94.58420839370604 3.0481282476616514 90.97511638384421 H 0.0 **** 0.06
13401 C 20.47708958460504 1.554864699711004 65.31143599080735 C 0.0 **** -0.24
13402 H 21.452072108158887 1.7840817754668024 64.88068409257505 H 0.0 **** 0.06
13403 H 19.73298064829703 2.244304318373679 64.91282283656221 H 0.0 **** 0.06
13404 H 20.525697396119668 1.6603546912469938 66.39531130945412 H 0.0 **** 0.06
13405 H 20.198396844753958 0.5323656813361595 65.05821548933847 H 0.0 **** 0.06
13406 C 15.46143314362314 87.24353658694992 5.913973463337385 C 0.0 **** -0.24
13407 H 14.49194222938452 87.72009068887536 6.056458777314774 H 0.0 **** 0.06
13408 H 15.68381286150941 86.60902398055043 6.772821329457926 H 0.0 **** 0.06
13409 H 16.23184169144129 88.00940229046512 5.8191367459051975 H 0.0 **** 0.06
13410 H 15.438400994019972 86.63713757884335 5.009388902669144 H 0.0 **** 0.06
13411 C 110.32177969340023 63.71221220608453 13.715492006702846 C 0.0 **** -0.24
13412 H 109.46627385287994 64.18296188457037 14.200437450334988 H 0.0 **** 0.06
13413 H 110.92664347541364 63.20088305907194 14.464632105067949 H 0.0 **** 0.06
13414 H 110.92291822887427 64.47505575316058 13.220534687224415 H 0.0 **** 0.06
13415 H 109.97024244689572 62.99197268117899 12.977268395971407 H 0.0 **** 0.06
13416 C 43.135681061223465 52.58144126544536 109.22709967233322 C 0.0 **** -0.24
13417 H 42.246609288007335 52.46787306701549 108.60757231462918 H 0.0 **** 0.06
13418 H 43.25976123258914 51.69515253828749 109.84964282573378 H 0.0 **** 0.06
13419 H 43.026385654064484 53.46015396403277 109.86302347511236 H 0.0 **** 0.06
13420 H 44.01084829500837 52.701542072090376 108.58852965744848 H 0.0 **** 0.06
13421 C 13.590080987485514 12.52952544522963 80.55863458399708 C 0.0 **** -0.24
13422 H 12.595518227195896 12.587529708378963 80.11617330187124 H 0.0 **** 0.06
13423 H 13.501659802479011 12.470513083326622 81.64402661536599 H 0.0 **** 0.06
13424 H 14.161562386818883 13.417194362915431 80.28767988479672 H 0.0 **** 0.06
13425 H 14.100938388094391 11.641285962960762 80.1869614863059 H 0.0 **** 0.06
13426 C 92.51396125377721 55.204997047000994 0.3467273596214824 C 0.0 **** -0.24
13427 H 92.70700417027308 54.1386154747127 0.46417665092272387 H 0.0 **** 0.06
13428 H 91.79261611390194 55.357305193592644 -0.45690753484737456 H 0.0 **** 0.06
13429 H 93.44440162152617 55.71674070729452 0.10155460409296779 H 0.0 **** 0.06
13430 H 92.11279725835274 55.60543184195831 1.2774071867022627 H 0.0 **** 0.06
13431 C 44.443622133025926 65.68105208193485 98.24467805241676 C 0.0 **** -0.24
13432 H 45.23924663631691 65.94602673503685 97.54908939624346 H 0.0 **** 0.06
13433 H 44.81395272416919 64.94290028523754 98.95585996641665 H 0.0 **** 0.06
13434 H 43.60108428799387 65.26375044554321 97.69171966962301 H 0.0 **** 0.06
13435 H 44.11889868584088 66.57283512362604 98.78127312790048 H 0.0 **** 0.06
13436 C 13.075585815767326 24.766776677920653 115.67700401760919 C 0.0 **** -0.24
13437 H 12.042785549114996 24.628029819176852 115.35635856106627 H 0.0 **** 0.06
13438 H 13.571381945971495 25.471656859599477 115.00831591529695 H 0.0 **** 0.06
13439 H 13.596676935986352 23.81043521602963 115.65027322988978 H 0.0 **** 0.06
13440 H 13.08918367122331 25.16015988278638 116.69431734525656 H 0.0 **** 0.06
13441 C 44.85664580815316 88.93578359880789 69.22274018028955 C 0.0 **** -0.24
13442 H 44.777945467296604 89.92770941578095 69.66802885137163 H 0.0 **** 0.06
13443 H 45.49987553298831 88.30994147969653 69.84196288676237 H 0.0 **** 0.06
13444 H 45.282168002609865 89.01919663947791 68.22315195022446 H 0.0 **** 0.06
13445 H 43.86440574138297 88.48691368681813 69.15977103358064 H 0.0 **** 0.06
13446 C 58.90625070637209 43.2595274929727 62.4736150810902 C 0.0 **** -0.24
13447 H 59.25690716930278 43.69593910117921 61.538182813615606 H 0.0 **** 0.06
13448 H 58.07442845517019 42.585026422070555 62.26989807714665 H 0.0 **** 0.06
13449 H 58.576389527109654 44.053003152347586 63.14369305828279 H 0.0 **** 0.06
13450 H 59.71992072789273 42.70377603442965 62.94047695644679 H 0.0 **** 0.06
13451 C 99.59909722226048 57.10901938182843 23.248916158629896 C 0.0 **** -0.24
13452 H 99.77797421823266 57.64156357079247 22.31422833587257 H 0.0 **** 0.06
13453 H 100.20836905665828 56.20567717691381 23.273980743194898 H 0.0 **** 0.06
13454 H 98.54515698740343 56.839952627478 23.316507559369768 H 0.0 **** 0.06
13455 H 99.86506666013656 57.75067060177054 24.088762279566453 H 0.0 **** 0.06
13456 C 74.90099065053214 96.67205027868076 73.56387033985266 C 0.0 **** -0.24
13457 H 74.86220461436275 95.6076812883478 73.3315454281074 H 0.0 **** 0.06
13458 H 75.88019925378897 96.91840744948217 73.97643464216492 H 0.0 **** 0.06
13459 H 74.12883441057308 96.91205439792606 74.29382392462134 H 0.0 **** 0.06
13460 H 74.73402472551182 97.24823887574041 72.65366725912571 H 0.0 **** 0.06
13461 C 23.0741858344084 39.259424391771944 104.16508277995017 C 0.0 **** -0.24
13462 H 23.081769610685523 38.21773622597893 104.48698625151665 H 0.0 **** 0.06
13463 H 22.51890123597901 39.85798913351001 104.88649927524905 H 0.0 **** 0.06
13464 H 22.597532404430012 39.33346737516721 103.18768434944785 H 0.0 **** 0.06
13465 H 24.09836582665961 39.62646890918819 104.09825298462025 H 0.0 **** 0.06
13466 C 85.21755451381284 58.3423389326 74.55446618746221 C 0.0 **** -0.24
13467 H 85.69665189477695 57.48160573841918 75.02158571200596 H 0.0 **** 0.06
13468 H 85.7928625810562 59.24146960810924 74.77476644039255 H 0.0 **** 0.06
13469 H 84.2063810801107 58.45153456813168 74.94567088633134 H 0.0 **** 0.06
13470 H 85.1758351870254 58.192232534447214 73.47521266043015 H 0.0 **** 0.06
13471 C 27.738980408590578 98.4011471102944 74.82321605724331 C 0.0 **** -0.24
13472 H 28.82305107276619 98.32578112370436 74.90683007907988 H 0.0 **** 0.06
13473 H 27.45396237375155 98.38846297532831 73.77073971853983 H 0.0 **** 0.06
13474 H 27.40495992301061 99.33326353835571 75.27841799750544 H 0.0 **** 0.06
13475 H 27.27521931725653 97.55870276156804 75.33600812341164 H 0.0 **** 0.06
13476 C 63.31186167367031 79.17785752129024 26.085454687072342 C 0.0 **** -0.24
13477 H 63.49251040647471 80.05025536420918 25.45707134853808 H 0.0 **** 0.06
13478 H 64.26215925192861 78.70000630067454 26.324549447839047 H 0.0 **** 0.06
13479 H 62.67370053624927 78.47255272559048 25.55408663900937 H 0.0 **** 0.06
13480 H 62.82068041600073 79.4901932562851 27.00708038159496 H 0.0 **** 0.06
13481 C 115.36910359631972 79.70939235053345 16.14816203344469 C 0.0 **** -0.24
13482 H 114.78617466137254 78.8065612405345 16.332136039594218 H 0.0 **** 0.06
13483 H 114.82477526547024 80.3586896961404 15.462199062344652 H 0.0 **** 0.06
13484 H 116.32871137833979 79.43804935857943 15.707962705987 H 0.0 **** 0.06
13485 H 115.53617925938764 80.2320839821287 17.08940359421669 H 0.0 **** 0.06
13486 C 75.14363306676088 31.638307525841213 44.74886180019132 C 0.0 **** -0.24
13487 H 74.26146781528766 32.23991624264368 44.52845306468316 H 0.0 **** 0.06
13488 H 76.03239301688701 32.26868459808312 44.70692011888872 H 0.0 **** 0.06
13489 H 75.23037782672222 30.83961431366057 44.0130989453869 H 0.0 **** 0.06
13490 H 75.04985979225829 31.20759155867008 45.74470052380508 H 0.0 **** 0.06
13491 C 53.821674211307794 41.321796882233286 20.141811413002035 C 0.0 **** -0.24
13492 H 54.61084343503853 40.73962779563479 20.61691940829142 H 0.0 **** 0.06
13493 H 53.57235125658681 42.1772084931757 20.769994202567 H 0.0 **** 0.06
13494 H 52.93825356118367 40.69707021503069 20.010277784363115 H 0.0 **** 0.06
13495 H 54.165960215737925 41.67360980445079 19.16821422313521 H 0.0 **** 0.06
13496 C 19.045406389341196 20.48363007732621 17.680678480912775 C 0.0 **** -0.24
13497 H 18.29599549317595 19.718172859014373 17.47691596166686 H 0.0 **** 0.06
13498 H 19.641740612742694 20.18770472432803 18.543498396968687 H 0.0 **** 0.06
13499 H 18.548112298915555 21.430965614912424 17.889461943601304 H 0.0 **** 0.06
13500 H 19.693150550313618 20.597494607094347 16.81139950985397 H 0.0 **** 0.06
13501 C 73.68857754243477 84.65184556029618 98.8459935013828 C 0.0 **** -0.24
13502 H 73.02737541398228 84.1445167717414 99.5481315002126 H 0.0 **** 0.06
13503 H 73.68871192060598 84.11710086254044 97.89591525586118 H 0.0 **** 0.06
13504 H 74.70002776557688 84.67395048873789 99.25047380592792 H 0.0 **** 0.06
13505 H 73.337281778707 85.67177694981063 98.68837426234464 H 0.0 **** 0.06
13506 C 64.57858221295753 12.739700685198542 50.108680148878705 C 0.0 **** -0.24
13507 H 64.67305232059996 13.291781962751909 51.04413899651195 H 0.0 **** 0.06
13508 H 63.56471282007533 12.847863235472538 49.724055343973475 H 0.0 **** 0.06
13509 H 64.79008272536021 11.685064367731076 50.28667834474635 H 0.0 **** 0.06
13510 H 65.28808499445888 13.134428878762535 49.38136933835921 H 0.0 **** 0.06
13511 C 79.72507625643951 45.2630057840131 24.709796937102972 C 0.0 **** -0.24
13512 H 79.10686016547038 45.81251916444535 25.419206145370133 H 0.0 **** 0.06
13513 H 80.31732678004599 44.51932173498636 25.24441735794513 H 0.0 **** 0.06
13514 H 80.39130007938425 45.95676046362004 24.19628563388646 H 0.0 **** 0.06
13515 H 79.08635742647164 44.764600004410795 23.980776035897193 H 0.0 **** 0.06
13516 C 58.4306341844522 69.08555037062752 115.61602818980943 C 0.0 **** -0.24
13517 H 59.006276352336684 68.56951591136004 116.38421896479272 H 0.0 **** 0.06
13518 H 59.025488379383205 69.16090752460889 114.70577803777316 H 0.0 **** 0.06
13519 H 58.17225875674646 70.08471097501837 115.96566476532914 H 0.0 **** 0.06
13520 H 57.5184130638242 68.52484085512339 115.40826603806107 H 0.0 **** 0.06
13521 C 55.07235253001372 82.9742488051292 51.163483247889644 C 0.0 **** -0.24
13522 H 55.68392473385308 82.90786983906851 50.26338444496207 H 0.0 **** 0.06
13523 H 54.481877555198004 83.89016718159243 51.13326061732283 H 0.0 **** 0.06
13524 H 55.71803201873847 82.98609974356741 52.04188073018997 H 0.0 **** 0.06
13525 H 54.40573994783771 82.11354196001676 51.21306066475853 H 0.0 **** 0.06
13526 C 112.31472523185302 79.94529887731784 114.87876561119256 C 0.0 **** -0.24
13527 H 112.10347315150838 79.52581840434193 115.86249842955667 H 0.0 **** 0.06
13528 H 112.04258826522575 79.22250896270407 114.10977097549328 H 0.0 **** 0.06
13529 H 113.37721683695236 80.17620910701234 114.80215877357533 H 0.0 **** 0.06
13530 H 111.7343513005864 80.85815894841254 114.74169923330102 H 0.0 **** 0.06
13531 C 38.33253064148877 113.73408456390635 94.22279034178689 C 0.0 **** -0.24
13532 H 37.54649084887842 113.26549915944031 93.63060142075327 H 0.0 **** 0.06
13533 H 38.66908121728093 113.0407646847473 94.99371823712072 H 0.0 **** 0.06
13534 H 37.943901984396405 114.63837952050676 94.69035842519705 H 0.0 **** 0.06
13535 H 39.17023804210294 113.9907383056109 93.57366957336684 H 0.0 **** 0.06
13536 C 103.94532933939287 51.70638728904805 83.73723469463243 C 0.0 **** -0.24
13537 H 104.9973075029581 51.80728037768304 83.4710936464993 H 0.0 **** 0.06
13538 H 103.68239165425275 50.649536501137874 83.78505471555741 H 0.0 **** 0.06
13539 H 103.33156629234851 52.20020964083608 82.98373355064064 H 0.0 **** 0.06
13540 H 103.77009647868275 52.16913244711398 84.70826553696529 H 0.0 **** 0.06
13541 C 95.06494382610413 85.14834442036086 56.62031373037445 C 0.0 **** -0.24
13542 H 96.03679727200193 85.26696932849939 56.13996944428888 H 0.0 **** 0.06
13543 H 94.29247123094865 85.05107054863011 55.8570408596288 H 0.0 **** 0.06
13544 H 94.85723584632487 86.02052306699353 57.23962973787003 H 0.0 **** 0.06
13545 H 95.07532395675591 84.25358394412613 57.244094616648496 H 0.0 **** 0.06
13546 C 13.858671803930655 112.31665955152553 99.98453109097284 C 0.0 **** -0.24
13547 H 14.355978750450042 113.24272098798646 100.27194114159636 H 0.0 **** 0.06
13548 H 14.276297597012523 111.48733919243767 100.55593377400939 H 0.0 **** 0.06
13549 H 14.012330716931771 112.13807225404526 98.91967516418077 H 0.0 **** 0.06
13550 H 12.791252606505342 112.39788989936457 100.18907552539957 H 0.0 **** 0.06
13551 C 113.35756536616962 101.96454624137549 82.66005757244386 C 0.0 **** -0.24
13552 H 114.03737163104319 101.69496933318062 81.85181485841662 H 0.0 **** 0.06
13553 H 112.61255545595306 102.66767667417294 82.28744464734336 H 0.0 **** 0.06
13554 H 113.92178465930525 102.42768948594382 83.4704473318875 H 0.0 **** 0.06
13555 H 112.85952168701354 101.06834980075499 83.02962619963535 H 0.0 **** 0.06
13556 C 15.311712479044843 13.399139282951666 36.83739233807077 C 0.0 **** -0.24
13557 H 15.36954836649005 12.435722630939495 37.342835564945574 H 0.0 **** 0.06
13558 H 16.122838136035853 13.477328020460789 36.1115752811117 H 0.0 **** 0.06
13559 H 15.40249914834996 14.200655904500806 37.570883628445046 H 0.0 **** 0.06
13560 H 14.35467748387481 13.483322621476574 36.32242656951516 H 0.0 **** 0.06
13561 C 2.3414309923541623 93.46724054494427 88.71493528957765 C 0.0 **** -0.24
13562 H 2.1921488736751655 92.39077500308733 88.80559072190084 H 0.0 **** 0.06
13563 H 1.3771715236370028 93.9571792154577 88.57604544659597 H 0.0 **** 0.06
13564 H 2.9811250803855387 93.67424027127254 87.85741846711994 H 0.0 **** 0.06
13565 H 2.8135193301422987 93.8459724236485 89.62120914061205 H 0.0 **** 0.06
13566 C 0.3113309487063134 62.43782557500133 101.06940903271314 C 0.0 **** -0.24
13567 H -0.2875397361558072 62.13708190799805 101.92951643750041 H 0.0 **** 0.06
13568 H -0.2595554604136652 62.27251434083391 100.15436990993345 H 0.0 **** 0.06
13569 H 1.2259451215945347 61.84571842308266 101.03970072956935 H 0.0 **** 0.06
13570 H 0.5646482810320208 63.49394922701332 101.15476501585528 H 0.0 **** 0.06
13571 C 83.98377024135873 38.90172021842071 83.8522747647446 C 0.0 **** -0.24
13572 H 82.91123262502583 39.08804349953772 83.80778667922849 H 0.0 **** 0.06
13573 H 84.1681375670299 37.960223670937864 84.37000685221074 H 0.0 **** 0.06
13574 H 84.47207837062372 39.71457292134636 84.39010580453552 H 0.0 **** 0.06
13575 H 84.3847293655951 38.843241655608836 82.83973060857318 H 0.0 **** 0.06
13576 C 31.181986293844858 109.23501782741766 89.57983238026017 C 0.0 **** -0.24
13577 H 30.78866837663753 108.58562946070293 90.36123192980187 H 0.0 **** 0.06
13578 H 31.944443120189362 109.89004820932578 90.00222009488972 H 0.0 **** 0.06
13579 H 30.373019924889974 109.83806506210666 89.16752909400549 H 0.0 **** 0.06
13580 H 31.621875196979175 108.62748746809854 88.78963423591287 H 0.0 **** 0.06
13581 C 71.85521987019388 75.46128083072662 95.24000926454039 C 0.0 **** -0.24
13582 H 71.92660698417816 75.65361152730566 94.1693522915615 H 0.0 **** 0.06
13583 H 70.88791681630761 75.01145886195008 95.46496833190781 H 0.0 **** 0.06
13584 H 71.95443952876005 76.40020571748133 95.78488180224542 H 0.0 **** 0.06
13585 H 72.65178088304705 74.7808136916602 95.54061626480757 H 0.0 **** 0.06
13586 C 110.33325884228208 98.34119178330256 107.26564869630113 C 0.0 **** -0.24
13587 H 110.23207839635228 99.42352315899298 107.34258916699875 H 0.0 **** 0.06
13588 H 110.14584691660932 97.888937905183 108.23981284327422 H 0.0 **** 0.06
13589 H 111.34193099617119 98.09270224300313 106.93730904858009 H 0.0 **** 0.06
13590 H 109.61206270117043 97.9589014026215 106.54339407726127 H 0.0 **** 0.06
13591 C 73.96368851427084 110.61774937785594 59.53055709299525 C 0.0 **** -0.24
13592 H 74.64983460145089 110.64366505328897 58.68496062427644 H 0.0 **** 0.06
13593 H 74.30984532671755 111.30694077451017 60.30110966105866 H 0.0 **** 0.06
13594 H 73.92729086087799 109.60679022574789 59.93673977561377 H 0.0 **** 0.06
13595 H 72.96727718521765 110.91229533820362 59.19961336308478 H 0.0 **** 0.06
13596 C 52.36259085126045 24.262202019019135 79.97521030389773 C 0.0 **** -0.24
13597 H 53.24945880403979 24.442836092900194 80.58277028498712 H 0.0 **** 0.06
13598 H 51.48089522660598 24.629529315421927 80.50126742145531 H 0.0 **** 0.06
13599 H 52.25842721856671 23.19241771722447 79.79519914847734 H 0.0 **** 0.06
13600 H 52.46232220532238 24.78372483159807 79.02369303002855 H 0.0 **** 0.06
13601 C 114.79998882039072 85.07577525945398 82.39213694347882 C 0.0 **** -0.24
13602 H 115.25603117357298 86.06245202663324 82.3071786086619 H 0.0 **** 0.06
13603 H 115.56229928119016 84.30986244114074 82.24778356721271 H 0.0 **** 0.06
13604 H 114.02646107103628 84.96650758501903 81.63130778411352 H 0.0 **** 0.06
13605 H 114.35474035399744 84.96578442064015 83.3806794776487 H 0.0 **** 0.06
13606 C 59.640218454767776 89.36201897944534 90.80903890660812 C 0.0 **** -0.24
13607 H 59.50441144593073 90.36588919929216 90.40716135118075 H 0.0 **** 0.06
13608 H 60.50963641386515 89.34871302941002 91.46686864000573 H 0.0 **** 0.06
13609 H 59.79333779515488 88.66060564627978 89.98928387049276 H 0.0 **** 0.06
13610 H 58.75260266712192 89.07383908780074 91.37336433570073 H 0.0 **** 0.06
13611 C 47.61420531053997 17.488092036667496 77.24683934484739 C 0.0 **** -0.24
13612 H 47.025389096992626 17.581781243798986 78.1588641833302 H 0.0 **** 0.06
13613 H 47.199240601234436 16.69380085313381 76.62572469843263 H 0.0 **** 0.06
13614 H 48.645903283913526 17.246357238066906 77.5040866670069 H 0.0 **** 0.06
13615 H 47.58792091056446 18.429890743330105 76.69889421057565 H 0.0 **** 0.06
13616 C 72.5262006600215 45.3109791581908 50.94927613731733 C 0.0 **** -0.24
13617 H 72.75033622299182 44.858109646591366 51.914751135965105 H 0.0 **** 0.06
13618 H 71.85394612307527 46.157571992565536 51.09121627860037 H 0.0 **** 0.06
13619 H 72.05015553873605 44.57304627402372 50.30296607292405 H 0.0 **** 0.06
13620 H 73.45215538117806 45.65526956882448 50.48683412250875 H 0.0 **** 0.06
13621 C 44.243711307639046 2.3499414492287087 80.26862051763987 C 0.0 **** -0.24
13622 H 43.697046285161775 2.6874347568580106 81.14901143040782 H 0.0 **** 0.06
13623 H 45.12063385029552 2.9804723386219507 80.1207752474549 H 0.0 **** 0.06
13624 H 43.59769375707958 2.4136920741580354 79.39308997675624 H 0.0 **** 0.06
13625 H 44.55893542850299 1.316240210164949 80.41156130755445 H 0.0 **** 0.06
13626 C 56.546530850535504 69.95033338444716 72.01713347881213 C 0.0 **** -0.24
13627 H 56.47310218946869 68.90931114901844 71.7023152797997 H 0.0 **** 0.06
13628 H 57.58130255441701 70.18058441642705 72.27233846006196 H 0.0 **** 0.06
13629 H 55.912082943139595 70.11176025734278 72.88869746243743 H 0.0 **** 0.06
13630 H 56.22012954096104 70.59869153578057 71.20429744445546 H 0.0 **** 0.06
13631 C 79.6848404866106 77.10852375823072 115.03320399427714 C 0.0 **** -0.24
13632 H 80.6501751703623 76.93410209652495 115.50924982455017 H 0.0 **** 0.06
13633 H 78.89619694699057 77.06654695167907 115.7850849176153 H 0.0 **** 0.06
13634 H 79.50884657196434 76.34322752108847 114.27722689908522 H 0.0 **** 0.06
13635 H 79.68627226411492 78.09127888065183 114.56184015677823 H 0.0 **** 0.06
13636 C 95.0985207999787 76.37691774915393 106.03866364132033 C 0.0 **** -0.24
13637 H 95.90527161579728 76.19302202121831 105.32891082925194 H 0.0 **** 0.06
13638 H 95.15194652371132 77.40788495395975 106.38930862237233 H 0.0 **** 0.06
13639 H 95.19824269238774 75.69858111094825 106.88641156437654 H 0.0 **** 0.06
13640 H 94.13934730559671 76.20836188603356 105.54935834996893 H 0.0 **** 0.06
13641 C 17.34195644093154 41.957610763520705 6.352993331651405 C 0.0 **** -0.24
13642 H 17.125966253873173 40.95169767001124 5.9939298221837305 H 0.0 **** 0.06
13643 H 18.355614601035825 42.235987010883974 6.0650274601681105 H 0.0 **** 0.06
13644 H 17.253309382993564 41.982050934293966 7.438914556835698 H 0.0 **** 0.06
13645 H 16.633446088040785 42.65942707117145 5.914417870797138 H 0.0 **** 0.06
13646 C 10.950606192286301 62.271499086232396 79.5807317616606 C 0.0 **** -0.24
13647 H 11.203601801024092 62.197782871491526 80.6385992957931 H 0.0 **** 0.06
13648 H 11.563519038444554 63.04259472236457 79.11382499836272 H 0.0 **** 0.06
13649 H 9.896671672221572 62.53217594187009 79.4768316201906 H 0.0 **** 0.06
13650 H 11.137826639041435 61.31413085131767 79.09504144160664 H 0.0 **** 0.06
13651 C 82.27361563519467 44.83667625880298 90.17612977247724 C 0.0 **** -0.24
13652 H 81.23027712952565 44.596957443443586 89.97141485756205 H 0.0 **** 0.06
13653 H 82.91761987159107 44.201531160364254 89.56710854471295 H 0.0 **** 0.06
13654 H 82.4857427112943 44.665094880593955 91.23087686143734 H 0.0 **** 0.06
13655 H 82.46042224725493 45.88319404755518 89.93270333035377 H 0.0 **** 0.06
13656 C 28.097892413192163 49.41224409054308 21.426171036107853 C 0.0 **** -0.24
13657 H 28.88683571042577 49.90222339637006 20.853635069393803 H 0.0 **** 0.06
13658 H 27.28114320903662 50.11429169428132 21.5933160076249 H 0.0 **** 0.06
13659 H 28.49768626451649 49.08459064342145 22.386457826433332 H 0.0 **** 0.06
13660 H 27.730197769356828 48.54960388741472 20.87202666186746 H 0.0 **** 0.06
13661 C 82.11251839519423 100.36606170214719 101.88695039713971 C 0.0 **** -0.24
13662 H 83.16681578053073 100.29032707376629 101.6206519768619 H 0.0 **** 0.06
13663 H 81.69242998584951 101.27417588535491 101.45285363713216 H 0.0 **** 0.06
13664 H 82.01302427257974 100.40267998501335 102.97151138736018 H 0.0 **** 0.06
13665 H 81.57789877196996 99.49860278685549 101.50199539797103 H 0.0 **** 0.06
13666 C 103.61112869515344 46.02447468108733 23.84623029029771 C 0.0 **** -0.24
13667 H 104.40412645127581 45.439674601508045 23.38099708749985 H 0.0 **** 0.06
13668 H 102.65430507534677 45.52137454946336 23.697931554456375 H 0.0 **** 0.06
13669 H 103.57614410334182 47.01501409809194 23.39216826579286 H 0.0 **** 0.06
13670 H 103.80905787201134 46.12082637716742 24.91337128250018 H 0.0 **** 0.06
13671 C 18.982355073384166 11.175062827410585 85.82788469054876 C 0.0 **** -0.24
13672 H 19.426054388979 12.020055072977826 85.30092776377492 H 0.0 **** 0.06
13673 H 19.77399171080369 10.544723630192479 86.23325057248883 H 0.0 **** 0.06
13674 H 18.3741127020895 10.594248267570919 85.13519994053132 H 0.0 **** 0.06
13675 H 18.357395936295237 11.542344476684406 86.64172484949918 H 0.0 **** 0.06
13676 C 80.48327949821993 21.685472084762722 13.373390417825647 C 0.0 **** -0.24
13677 H 79.60744874128333 21.44730592688086 12.768804617318494 H 0.0 **** 0.06
13678 H 81.09112542669249 20.78945339960393 13.500198992076434 H 0.0 **** 0.06
13679 H 80.163565128535 22.04907143223582 14.348863466750629 H 0.0 **** 0.06
13680 H 81.07068777086593 22.455371916904568 12.872788439659104 H 0.0 **** 0.06
13681 C 94.84992603660163 75.98000358163188 114.15979568076307 C 0.0 **** -0.24
13682 H 95.75581361801129 76.16528317237527 114.73653538640458 H 0.0 **** 0.06
13683 H 95.11859531333546 75.66835262007052 113.15114114529996 H 0.0 **** 0.06
13684 H 94.25646550751244 76.89360144619792 114.1128472954939 H 0.0 **** 0.06
13685 H 94.26755485171068 75.19336030420965 114.64111553099364 H 0.0 **** 0.06
13686 C 115.66434657468164 84.82149276288155 34.00337615998358 C 0.0 **** -0.24
13687 H 116.607675960589 85.20774108635119 34.3903910153603 H 0.0 **** 0.06
13688 H 115.09402572891281 84.37361245877504 34.8176211864573 H 0.0 **** 0.06
13689 H 115.86651420798336 84.06758802476388 33.24245010802477 H 0.0 **** 0.06
13690 H 115.09115688540157 85.63724411661516 33.56295266429624 H 0.0 **** 0.06
13691 C 69.46008461940437 53.26525170745836 25.979273784713058 C 0.0 **** -0.24
13692 H 70.47312069942478 53.5735245001359 26.23975487446384 H 0.0 **** 0.06
13693 H 68.81141961208931 53.37936334297967 26.848239170531258 H 0.0 **** 0.06
13694 H 69.4680138813626 52.2218355520059 25.664846716164618 H 0.0 **** 0.06
13695 H 69.08973390503331 53.88694354264766 25.165128175460097 H 0.0 **** 0.06
13696 C 19.29919413399572 17.199358448854554 33.44197227587304 C 0.0 **** -0.24
13697 H 18.513305227607635 17.051471840635486 32.70086987577841 H 0.0 **** 0.06
13698 H 20.144891822881146 17.70807985024689 32.977507420984864 H 0.0 **** 0.06
13699 H 19.622590534724505 16.231957691925686 33.825361190359786 H 0.0 **** 0.06
13700 H 18.914910200879763 17.806465920112856 34.261061329431556 H 0.0 **** 0.06
13701 C 7.4672536459681425 39.78384207577108 63.85674138531036 C 0.0 **** -0.24
13702 H 7.5738990083421385 40.13597231528388 64.88355135141973 H 0.0 **** 0.06
13703 H 8.453184926063301 39.69349022192314 63.40067273434596 H 0.0 **** 0.06
13704 H 6.867105332383872 40.49509471978158 63.2894026659377 H 0.0 **** 0.06
13705 H 6.976054304293811 38.81139688613433 63.856524235226175 H 0.0 **** 0.06
13706 C 40.61279406097255 106.72201077760913 67.13991913165886 C 0.0 **** -0.24
13707 H 40.23500996708668 106.0918155661947 66.33502491104115 H 0.0 **** 0.06
13708 H 39.78787806170516 107.01274236050293 67.79064435401267 H 0.0 **** 0.06
13709 H 41.07323179392688 107.61526016327072 66.71529305763335 H 0.0 **** 0.06
13710 H 41.35425624714614 106.17029287210066 67.71645936919268 H 0.0 **** 0.06
13711 C 31.36120167674946 100.53107221073117 78.93862416764696 C 0.0 **** -0.24
13712 H 31.644838037776225 100.64704706075543 77.8931134121401 H 0.0 **** 0.06
13713 H 31.240157228665154 101.51449271122897 79.39320191932468 H 0.0 **** 0.06
13714 H 32.1380350468643 99.9793028067985 79.4669279938629 H 0.0 **** 0.06
13715 H 30.420670260756054 99.9837232555833 79.00041676926665 H 0.0 **** 0.06
13716 C 53.3613340144297 19.618264572236455 25.926191309057906 C 0.0 **** -0.24
13717 H 53.08347157235909 20.220187018056563 25.061110171717097 H 0.0 **** 0.06
13718 H 54.33267584487794 19.156241474725846 25.751013586114702 H 0.0 **** 0.06
13719 H 52.612117529612476 18.84222151815493 26.08501331778458 H 0.0 **** 0.06
13720 H 53.415906522975945 20.256428035467394 26.8095162354561 H 0.0 **** 0.06
13721 C 71.56155927040594 63.55545907603323 57.30028012769229 C 0.0 **** -0.24
13722 H 70.56694054505456 63.2856877715347 57.65499913659244 H 0.0 **** 0.06
13723 H 72.3020329481442 63.28033462209004 58.05262441748533 H 0.0 **** 0.06
13724 H 71.60571079331547 64.63029956798874 57.12273815809287 H 0.0 **** 0.06
13725 H 71.77348845861285 63.024709208235635 56.37153677668023 H 0.0 **** 0.06
13726 C 82.2805290965926 13.503484697119859 58.57525651010786 C 0.0 **** -0.24
13727 H 82.02407803905487 12.444856129710985 58.62797301790863 H 0.0 **** 0.06
13728 H 82.2203970202506 13.840372893734667 57.54004055721799 H 0.0 **** 0.06
13729 H 83.29369105640149 13.649808769068215 58.947167193695236 H 0.0 **** 0.06
13730 H 81.58235810762662 14.077040411328284 59.18590512847828 H 0.0 **** 0.06
13731 C 49.48008639974293 54.09847115890909 114.8108895058414 C 0.0 **** -0.24
13732 H 50.5296004041997 54.215157490732025 115.0834501072552 H 0.0 **** 0.06
13733 H 48.85721397550698 54.25415745152529 115.69163082132611 H 0.0 **** 0.06
13734 H 49.31592123612941 53.09289426379928 114.42269045538684 H 0.0 **** 0.06
13735 H 49.219828591980146 54.831066202471305 114.04771202997702 H 0.0 **** 0.06
13736 C 64.16854352696542 1.5849342236858828 21.98845275028006 C 0.0 **** -0.24
13737 H 63.98749557472328 2.534067726529326 21.48465839807423 H 0.0 **** 0.06
13738 H 63.79817408232259 1.6406631997429066 23.012498334196664 H 0.0 **** 0.06
13739 H 65.23964614685381 1.378082172701161 21.99963660312028 H 0.0 **** 0.06
13740 H 63.65056159139772 0.7866535027322463 21.45717867557852 H 0.0 **** 0.06
13741 C 64.99638174455043 10.942541258026296 56.88394232607567 C 0.0 **** -0.24
13742 H 64.35030303042812 11.792050566325315 57.10519507894077 H 0.0 **** 0.06
13743 H 64.85325724030045 10.172109082616231 57.642469364521844 H 0.0 **** 0.06
13744 H 66.03661170620722 11.26722027792178 56.88721052071381 H 0.0 **** 0.06
13745 H 64.74369817619284 10.53975212888787 55.90377886405403 H 0.0 **** 0.06
13746 C 50.857709809871366 7.8751493841859315 106.95038893217789 C 0.0 **** -0.24
13747 H 49.893359495379116 7.9748598852974055 106.45201673029005 H 0.0 **** 0.06
13748 H 50.82100688436438 8.381175281631442 107.9163839528627 H 0.0 **** 0.06
13749 H 51.634250199558124 8.32536855209787 106.33229892418919 H 0.0 **** 0.06
13750 H 51.080075904519134 6.818937159270547 107.10293604404028 H 0.0 **** 0.06
13751 C 104.86567848986934 17.850141546649894 0.6136158324680423 C 0.0 **** -0.24
13752 H 104.4046753362623 18.802174506888775 0.3525357116869827 H 0.0 **** 0.06
13753 H 105.72683908333853 18.028216992780784 1.2589941863189438 H 0.0 **** 0.06
13754 H 105.19011640534536 17.342142030987745 -0.29449874132581044 H 0.0 **** 0.06
13755 H 104.14086736425813 17.22780967026175 1.1383828452897546 H 0.0 **** 0.06
13756 C 81.2106407785981 75.57373083535107 102.17506069614635 C 0.0 **** -0.24
13757 H 81.8887744678836 75.45069731132169 103.01958779027558 H 0.0 **** 0.06
13758 H 81.78467044400227 75.82238844823499 101.28150600596877 H 0.0 **** 0.06
13759 H 80.50534851722564 76.37745868333603 102.38852258158809 H 0.0 **** 0.06
13760 H 80.66498185064373 74.64570554067271 102.0089617695908 H 0.0 **** 0.06
13761 C 22.77833336156783 1.082549548307398 11.284731238913793 C 0.0 **** -0.24
13762 H 23.854925733523658 1.156337926326259 11.439704518422161 H 0.0 **** 0.06
13763 H 22.30363344474881 0.728205386287982 12.20057502856882 H 0.0 **** 0.06
13764 H 22.57530018031946 0.38097286494793536 10.475137956671759 H 0.0 **** 0.06
13765 H 22.380327901805117 2.062894447453047 11.024544701059881 H 0.0 **** 0.06
13766 C 11.262843230329494 88.24200387674001 52.66563353048522 C 0.0 **** -0.24
13767 H 11.794337936316069 88.3323258676346 53.612979227653 H 0.0 **** 0.06
13768 H 11.641341621087545 87.37936051988775 52.11783801513991 H 0.0 **** 0.06
13769 H 11.416809224139822 89.14549985965398 52.07570299937777 H 0.0 **** 0.06
13770 H 10.19804462956931 88.11184007922795 52.85871091117997 H 0.0 **** 0.06
13771 C 86.36405359146019 7.915020653756073 3.162112438779559 C 0.0 **** -0.24
13772 H 85.65788796968047 7.222309967376788 3.619714409059185 H 0.0 **** 0.06
13773 H 87.0904307597055 7.355673427928366 2.573138412477988 H 0.0 **** 0.06
13774 H 86.8798739780618 8.47476069441052 3.9421463831898222 H 0.0 **** 0.06
13775 H 85.82495852144099 8.606667122913478 2.5138591815918403 H 0.0 **** 0.06
13776 C 98.6662495257558 39.052020191983615 17.405742816977863 C 0.0 **** -0.24
13777 H 98.25125142863465 38.07088747498659 17.17604802635981 H 0.0 **** 0.06
13778 H 97.88312944953782 39.806353632595176 17.32395888895843 H 0.0 **** 0.06
13779 H 99.46672398822153 39.28172421889684 16.70337170582252 H 0.0 **** 0.06
13780 H 99.06375266445579 39.05031936611016 18.420829972708702 H 0.0 **** 0.06
13781 C 6.598454329461289 55.765751371159155 29.651757809423373 C 0.0 **** -0.24
13782 H 5.788000263090453 56.48517330586412 29.539002391417398 H 0.0 **** 0.06
13783 H 7.421059811702868 56.22744935512716 30.1981814221719 H 0.0 **** 0.06
13784 H 6.946579484654681 55.453173470305615 28.666303297442255 H 0.0 **** 0.06
13785 H 6.238627072941773 54.896257949518144 30.20259910765037 H 0.0 **** 0.06
13786 C 41.61083308177842 104.02661683233373 5.728873954849062 C 0.0 **** -0.24
13787 H 41.311320075024696 104.3481668599947 6.726758786199644 H 0.0 **** 0.06
13788 H 42.609206063526784 103.58997729236057 5.773392810136235 H 0.0 **** 0.06
13789 H 41.61823820579178 104.8854845674947 5.0579433192528604 H 0.0 **** 0.06
13790 H 40.90402310954019 103.2832795696952 5.359748031504791 H 0.0 **** 0.06
13791 C 66.06702282880048 66.3612253573413 40.69184954962222 C 0.0 **** -0.24
13792 H 66.42220763481674 67.31913403056987 40.31238642795455 H 0.0 **** 0.06
13793 H 65.70977739430018 66.48491836272072 41.714365228989124 H 0.0 **** 0.06
13794 H 66.88312122556226 65.63895469593217 40.67619569503866 H 0.0 **** 0.06
13795 H 65.25228010013655 66.00169466052913 40.06233816025056 H 0.0 **** 0.06
13796 C 53.014196596761785 85.00291318887425 88.55090113052728 C 0.0 **** -0.24
13797 H 53.24468564346094 85.96744997321592 89.00397527562728 H 0.0 **** 0.06
13798 H 51.94522474837114 84.94543892839293 88.34376470990134 H 0.0 **** 0.06
13799 H 53.29524514463212 84.20355416117032 89.23613129524517 H 0.0 **** 0.06
13800 H 53.57096744189481 84.897243610869 87.61908258768153 H 0.0 **** 0.06
13801 C 49.84808399133789 2.2796290975259126 36.06717507040008 C 0.0 **** -0.24
13802 H 50.69346065115542 2.9507018294692955 36.21882677561837 H 0.0 **** 0.06
13803 H 50.21448401254406 1.2929290041846144 35.784158296567284 H 0.0 **** 0.06
13804 H 49.21095793239647 2.671978601375187 35.274371296943 H 0.0 **** 0.06
13805 H 49.27432109508703 2.2033665705582024 36.99137135909871 H 0.0 **** 0.06
13806 C 27.749053420898406 97.97973515102825 79.07338655644462 C 0.0 **** -0.24
13807 H 27.476619762591554 97.76233921228763 78.04046473986224 H 0.0 **** 0.06
13808 H 27.587973141632574 97.09153586815972 79.68584540139342 H 0.0 **** 0.06
13809 H 27.13211390954399 98.79594685223077 79.44671823695761 H 0.0 **** 0.06
13810 H 28.799494553295915 98.26635872305928 79.11934181821745 H 0.0 **** 0.06
13811 C 21.486461808648144 114.020659939963 39.743501156029566 C 0.0 **** -0.24
13812 H 20.674754582614526 114.30442659782841 39.07355457313663 H 0.0 **** 0.06
13813 H 21.88120406786392 113.04984669501923 39.44507578177269 H 0.0 **** 0.06
13814 H 21.110158529332622 113.96219163311221 40.76518892475253 H 0.0 **** 0.06
13815 H 22.278647982424744 114.76752374987332 39.690283912584576 H 0.0 **** 0.06
13816 C 102.88387853793427 20.115250093964164 93.40223305606321 C 0.0 **** -0.24
13817 H 102.10012799121694 20.50956451648534 92.75324466489036 H 0.0 **** 0.06
13818 H 103.6621361195219 20.867853145087395 93.52807950481568 H 0.0 **** 0.06
13819 H 103.31195735065546 19.219918015731878 92.95005872700455 H 0.0 **** 0.06
13820 H 102.45844956697061 19.865452352593934 94.37333950670131 H 0.0 **** 0.06
13821 C 35.800589646700544 44.35953781144195 72.35889485371726 C 0.0 **** -0.24
13822 H 35.409942155749974 43.4058654554529 72.0031067675043 H 0.0 **** 0.06
13823 H 35.1251803067654 45.16182727888486 72.06258696984102 H 0.0 **** 0.06
13824 H 36.785299385453754 44.53266982515595 71.92502669734404 H 0.0 **** 0.06
13825 H 35.881544225239395 44.33492773755785 73.44614796200375 H 0.0 **** 0.06
13826 C 27.370440487609727 57.147630895533666 101.68378702487284 C 0.0 **** -0.24
13827 H 26.80728377518294 57.85233674302856 102.29508948894829 H 0.0 **** 0.06
13828 H 28.380522158583943 57.52955409178293 101.52746880996771 H 0.0 **** 0.06
13829 H 26.875098442145827 57.02421469887372 100.72040688790469 H 0.0 **** 0.06
13830 H 27.421030365906176 56.18485989174769 102.19247280304606 H 0.0 **** 0.06
13831 C 90.90453762682283 53.221620554090485 39.650067394214034 C 0.0 **** -0.24
13832 H 90.14024864616458 53.82679463449698 40.136801607117775 H 0.0 **** 0.06
13833 H 90.61952559764055 52.17021316563617 39.69576465058276 H 0.0 **** 0.06
13834 H 91.85743704784302 53.3615832360524 40.16049436987703 H 0.0 **** 0.06
13835 H 91.0016857540099 53.52712403522497 38.60857069069198 H 0.0 **** 0.06
13836 C 86.22797730002333 51.335141736284356 65.4489056521456 C 0.0 **** -0.24
13837 H 85.24570970447331 51.32475792939363 64.97699032463146 H 0.0 **** 0.06
13838 H 86.43569286010984 50.35402081637113 65.87766272153715 H 0.0 **** 0.06
13839 H 86.24459742971362 52.08809042419995 66.23704625774634 H 0.0 **** 0.06
13840 H 86.98647849780838 51.57388974799551 64.70264300518497 H 0.0 **** 0.06
13841 C 5.927711863142093 103.67460203482949 111.80666213168482 C 0.0 **** -0.24
13842 H 6.875449329963374 103.81368556338555 111.287097904858 H 0.0 **** 0.06
13843 H 5.226253653385982 103.15748476542407 111.15117397652685 H 0.0 **** 0.06
13844 H 5.518369622104927 104.64657230204966 112.08267536397594 H 0.0 **** 0.06
13845 H 6.08979558288209 103.08061987894375 112.70589880700476 H 0.0 **** 0.06
13846 C 13.943774452848402 67.14023355335047 4.876432042292464 C 0.0 **** -0.24
13847 H 13.01782642696702 67.71486078447722 4.867638452875411 H 0.0 **** 0.06
13848 H 14.409831051420156 67.21842154184844 5.8585376503384055 H 0.0 **** 0.06
13849 H 14.622406950382583 67.53467716854169 4.11964028426695 H 0.0 **** 0.06
13850 H 13.724182151477919 66.09524750392544 4.65957982796354 H 0.0 **** 0.06
13851 C 97.83374447498869 43.46704760672168 79.21613159714349 C 0.0 **** -0.24
13852 H 97.37882904976851 44.3309699239978 78.73107617002586 H 0.0 **** 0.06
13853 H 98.43628947447891 42.92002778410372 78.491556310661 H 0.0 **** 0.06
13854 H 97.05205172105559 42.81568224877168 79.6054593439938 H 0.0 **** 0.06
13855 H 98.4686924146061 43.804376849534265 80.03639481436244 H 0.0 **** 0.06
13856 C 99.88551185129859 95.39917518239594 109.478937847566 C 0.0 **** -0.24
13857 H 100.42101942710991 94.65088649384165 110.062331513333 H 0.0 **** 0.06
13858 H 100.57089340961616 96.19816910184655 109.1963526672521 H 0.0 **** 0.06
13859 H 99.07228887527896 95.81150990738247 110.07669202091994 H 0.0 **** 0.06
13860 H 99.47689279148216 94.9351065975874 108.58055961921795 H 0.0 **** 0.06
13861 C 92.88829970382636 113.36762984851134 101.68612350133685 C 0.0 **** -0.24
13862 H 93.17171703666492 113.28176691746238 102.73535643745129 H 0.0 **** 0.06
13863 H 91.81723539187851 113.18795154236969 101.58336840792094 H 0.0 **** 0.06
13864 H 93.43813144367212 112.6308731592478 101.1000072804618 H 0.0 **** 0.06
13865 H 93.12604032807195 114.36855916541177 101.32611038232841 H 0.0 **** 0.06
13866 C 22.387408204575365 47.357815475127495 32.4438412793391 C 0.0 **** -0.24
13867 H 22.364639413910595 47.89966477798461 33.38954022188756 H 0.0 **** 0.06
13868 H 23.140599716641617 47.79788279973127 31.790839128988637 H 0.0 **** 0.06
13869 H 21.409423446325917 47.41984689001811 31.965569887814354 H 0.0 **** 0.06
13870 H 22.634397514097714 46.31254941166628 32.631129088540376 H 0.0 **** 0.06
13871 C 45.48212392726356 52.23224110852526 35.03475504903057 C 0.0 **** -0.24
13872 H 45.258146806080504 52.67504012622133 34.06433873411131 H 0.0 **** 0.06
13873 H 44.86596948214762 52.705666486230754 35.799803231188825 H 0.0 **** 0.06
13874 H 46.53566516011 52.385886608960604 35.26964336422706 H 0.0 **** 0.06
13875 H 45.267637671301 51.16413327660457 35.00437674638381 H 0.0 **** 0.06
13876 C 54.5002405429841 11.417015245583126 42.8433030227651 C 0.0 **** -0.24
13877 H 54.546529072121814 10.474536252145377 42.29762154296711 H 0.0 **** 0.06
13878 H 53.61846033259485 11.422587457692309 43.48500251304753 H 0.0 **** 0.06
13879 H 54.43926552172172 12.243287281839837 42.13417313932425 H 0.0 **** 0.06
13880 H 55.39593753222658 11.527997164383244 43.45434431701189 H 0.0 **** 0.06
13881 C 17.735444643329064 109.89896473526699 24.018351566737465 C 0.0 **** -0.24
13882 H 17.846194781663815 110.57568614361924 24.865079411554746 H 0.0 **** 0.06
13883 H 17.39569622671488 108.92570916770342 24.373961219635618 H 0.0 **** 0.06
13884 H 18.696025876440483 109.78705453431951 23.51518521899061 H 0.0 **** 0.06
13885 H 17.00435674938267 110.30723633185448 23.32049387829923 H 0.0 **** 0.06
13886 C 4.364491932688944 77.40184519474445 43.90109997974173 C 0.0 **** -0.24
13887 H 3.786809835537932 77.31930049718717 42.98048099243391 H 0.0 **** 0.06
13888 H 4.150591873465103 78.35746509362913 44.380339959131106 H 0.0 **** 0.06
13889 H 5.428010298386178 77.34168458070627 43.66932215930751 H 0.0 **** 0.06
13890 H 4.09337569701969 76.58846806044913 44.57391953915527 H 0.0 **** 0.06
13891 C 43.536591268807825 109.49506640973088 23.28908278998614 C 0.0 **** -0.24
13892 H 43.2368315226085 109.29081523680445 22.261249096162828 H 0.0 **** 0.06
13893 H 43.95665790542479 110.4980740560089 23.35270783961448 H 0.0 **** 0.06
13894 H 44.284764242307745 108.76625996217872 23.60028674068053 H 0.0 **** 0.06
13895 H 42.66609982910329 109.42289068998798 23.942106485610566 H 0.0 **** 0.06
13896 C 6.738712541918872 73.85485676226051 113.50253656185994 C 0.0 **** -0.24
13897 H 6.194120015566426 72.91328761176665 113.4326218666574 H 0.0 **** 0.06
13898 H 7.066615355625231 74.00863240808215 114.53019813138825 H 0.0 **** 0.06
13899 H 6.084780884370787 74.67502172968173 113.20218093176916 H 0.0 **** 0.06
13900 H 7.606215252649434 73.82264161456813 112.84364524726054 H 0.0 **** 0.06
13901 C 89.24256225990709 111.96888550508399 107.82599833178291 C 0.0 **** -0.24
13902 H 89.65319494750682 111.02748626171298 108.19049496035467 H 0.0 **** 0.06
13903 H 89.02553090941763 111.88193417374923 106.76132118889493 H 0.0 **** 0.06
13904 H 89.9684508900965 112.76656122601537 107.98505403744731 H 0.0 **** 0.06
13905 H 88.3249702950942 112.1989921655762 108.36739694767219 H 0.0 **** 0.06
13906 C 77.93815519253037 103.08375334903931 66.98589433355019 C 0.0 **** -0.24
13907 H 77.42435577014993 102.53565983161593 66.19549363627777 H 0.0 **** 0.06
13908 H 77.21550508118928 103.39938214373984 67.73802251595447 H 0.0 **** 0.06
13909 H 78.42682558287902 103.9609020411774 66.55972996105095 H 0.0 **** 0.06
13910 H 78.6874750851643 102.43942148347395 67.44693962679958 H 0.0 **** 0.06
13911 C 98.1786898292302 4.130604682586224 37.665577183861245 C 0.0 **** -0.24
13912 H 99.07881845072222 4.480190709217652 38.1716598401419 H 0.0 **** 0.06
13913 H 98.33286652213943 4.159217994353256 36.58752555942837 H 0.0 **** 0.06
13914 H 97.34005556374478 4.775313181518385 37.93086220837699 H 0.0 **** 0.06
13915 H 97.96214676197371 3.108278643111447 37.975072107225174 H 0.0 **** 0.06
13916 C 100.58343716776025 110.22694330413185 44.67296690103285 C 0.0 **** -0.24
13917 H 99.51707727237346 110.32652581118236 44.872667638941124 H 0.0 **** 0.06
13918 H 101.07143691360587 109.75883434936492 45.52860869641542 H 0.0 **** 0.06
13919 H 101.0153008823712 111.21255532984117 44.50263148057451 H 0.0 **** 0.06
13920 H 100.73115315092718 109.60798540003344 43.787873873331634 H 0.0 **** 0.06
13921 C 4.389045096498876 12.218291643813188 76.19522020153549 C 0.0 **** -0.24
13922 H 4.280028369790557 12.83809070479407 75.30507355735013 H 0.0 **** 0.06
13923 H 5.126601803528388 11.437525618910058 76.00546204706913 H 0.0 **** 0.06
13924 H 3.43027070425984 11.761381313077607 76.43963204389239 H 0.0 **** 0.06
13925 H 4.720184140085223 12.837258390101113 77.0289825449331 H 0.0 **** 0.06
13926 C 40.995153590511336 87.23675953404154 100.26905293860617 C 0.0 **** -0.24
13927 H 41.21200404706832 86.30370413259232 99.74824866236457 H 0.0 **** 0.06
13928 H 41.929850706132015 87.74571020690206 100.5057576149494 H 0.0 **** 0.06
13929 H 40.454642885570536 87.02099581214037 101.18985566553133 H 0.0 **** 0.06
13930 H 40.385111387325026 87.87571990547889 99.62966903788134 H 0.0 **** 0.06
13931 C 93.6256141592043 58.6245954093547 0.9458683374017163 C 0.0 **** -0.24
13932 H 94.01206116597145 57.6137307469092 1.0771463534859294 H 0.0 **** 0.06
13933 H 94.12279122803028 59.29785294898056 1.6446457258085267 H 0.0 **** 0.06
13934 H 92.55238366080425 58.63064099112995 1.135629474433566 H 0.0 **** 0.06
13935 H 93.81522489593131 58.956249908115126 -0.07494389338738561 H 0.0 **** 0.06
13936 C 97.31330697228847 44.64248638856884 68.94992794569055 C 0.0 **** -0.24
13937 H 97.27270508614941 45.724095416686936 69.0798893596646 H 0.0 **** 0.06
13938 H 96.69739545425779 44.356114792679435 68.09790927274838 H 0.0 **** 0.06
13939 H 96.93947337515011 44.155047784701125 69.85025043977146 H 0.0 **** 0.06
13940 H 98.34382981526745 44.337188592209 68.77297205145433 H 0.0 **** 0.06
13941 C 51.15329912045706 72.86391131049712 45.009112198314654 C 0.0 **** -0.24
13942 H 50.901205344589414 71.91033753389515 44.54508273896812 H 0.0 **** 0.06
13943 H 50.26431226322143 73.2836080360318 45.48244370568648 H 0.0 **** 0.06
13944 H 51.518998068536234 73.55222016560832 44.24812555693518 H 0.0 **** 0.06
13945 H 51.92638419076053 72.70864819947201 45.76098342151454 H 0.0 **** 0.06
13946 C 72.69705909198693 30.290538337868327 100.62439345721128 C 0.0 **** -0.24
13947 H 72.61594065023343 31.319832081145137 100.27668571251792 H 0.0 **** 0.06
13948 H 72.5665723676819 30.261251870798787 101.70585914543136 H 0.0 **** 0.06
13949 H 73.67988364048341 29.89666057076488 100.36516811939941 H 0.0 **** 0.06
13950 H 71.92589800495382 29.684604461126014 100.1488818793382 H 0.0 **** 0.06
13951 C 58.60735817272422 33.8959406171534 103.76586051303156 C 0.0 **** -0.24
13952 H 59.61198970698939 34.244697544747964 103.52525777006974 H 0.0 **** 0.06
13953 H 58.594261172102165 33.49641300188739 104.78082347394655 H 0.0 **** 0.06
13954 H 58.316243523536855 33.115513616217584 103.06338811877913 H 0.0 **** 0.06
13955 H 57.90706172307404 34.72882625304496 103.69434115697032 H 0.0 **** 0.06
13956 C 29.047087806519038 15.447094668724151 35.84973946471094 C 0.0 **** -0.24
13957 H 28.505158126926666 16.335504688179718 35.525825276667184 H 0.0 **** 0.06
13958 H 29.751451643096843 15.147929493105465 35.073797897690056 H 0.0 **** 0.06
13959 H 28.34018804655861 14.63764704534168 36.03191747777345 H 0.0 **** 0.06
13960 H 29.589456179396315 15.669078223585778 36.768613441200785 H 0.0 **** 0.06
13961 C 6.111082135795018 34.90032997877165 49.91453025926444 C 0.0 **** -0.24
13962 H 7.014376016681057 35.038390915928574 49.32075937253671 H 0.0 **** 0.06
13963 H 5.703553192407494 33.9064248111593 49.727834595432626 H 0.0 **** 0.06
13964 H 5.374018540324219 35.65338436652394 49.6359411502508 H 0.0 **** 0.06
13965 H 6.353662294119262 35.00136912717119 50.97244874362019 H 0.0 **** 0.06
13966 C 41.5585012808709 86.92073330461217 67.99971486888461 C 0.0 **** -0.24
13967 H 42.32602767474938 87.68084416934371 67.85434893022773 H 0.0 **** 0.06
13968 H 41.12655238573885 86.65182422825914 67.03609586851275 H 0.0 **** 0.06
13969 H 40.77867481644586 87.3127769232538 68.65170871360726 H 0.0 **** 0.06
13970 H 42.00515148203695 86.03755344615816 68.45718566381873 H 0.0 **** 0.06
13971 C 2.912740804276666 63.48304829455009 51.614823314807595 C 0.0 **** -0.24
13972 H 3.3619163230381446 62.49522104245516 51.515082682277765 H 0.0 **** 0.06
13973 H 2.239945162229901 63.49174140903365 52.47269745512874 H 0.0 **** 0.06
13974 H 2.353500094424419 63.7214057691009 50.710009463547706 H 0.0 **** 0.06
13975 H 3.698145508434777 64.22536299740324 51.76190821430999 H 0.0 **** 0.06
13976 C 107.35435519708741 49.313998304419954 0.1969212457753997 C 0.0 **** -0.24
13977 H 107.79512884516481 49.723097723412685 -0.7122524551853644 H 0.0 **** 0.06
13978 H 106.30669387073465 49.608660953194665 0.2576108072363468 H 0.0 **** 0.06
13979 H 107.8912469468629 49.69688808374096 1.064893150527098 H 0.0 **** 0.06
13980 H 107.42471275795143 48.22580128682846 0.17621614835940136 H 0.0 **** 0.06
13981 C 99.24609648175623 103.47581260116425 75.95528756489233 C 0.0 **** -0.24
13982 H 99.92141349303888 103.77896296731922 76.75654623099751 H 0.0 **** 0.06
13983 H 99.29520563433817 104.20314296355366 75.1454602127655 H 0.0 **** 0.06
13984 H 98.22738641101404 103.42615887582903 76.33908285038052 H 0.0 **** 0.06
13985 H 99.54245367363178 102.49554691665918 75.58312482030095 H 0.0 **** 0.06
13986 C 7.276831951006139 55.83773459886572 37.61515775337293 C 0.0 **** -0.24
13987 H 8.087838301164751 55.38560664970902 37.04455670981082 H 0.0 **** 0.06
13988 H 7.567098040375374 56.841731969649004 37.92620675743201 H 0.0 **** 0.06
13989 H 7.069690629509875 55.23019523120655 38.49610096499255 H 0.0 **** 0.06
13990 H 6.3828313279276845 55.894779218852705 36.99407212390561 H 0.0 **** 0.06
13991 C 35.451175812393046 8.724942139615166 77.52098376609973 C 0.0 **** -0.24
13992 H 35.25944508559593 9.557925185095996 78.1977120393147 H 0.0 **** 0.06
13993 H 36.525781033782124 8.627216830129413 77.36243404636872 H 0.0 **** 0.06
13994 H 34.95791800587463 8.91011451261906 76.56714497322179 H 0.0 **** 0.06
13995 H 35.063539332523135 7.805142634290661 77.95856274710565 H 0.0 **** 0.06
13996 C 90.87901368593211 106.06962561107457 60.78107443077349 C 0.0 **** -0.24
13997 H 90.08832439403972 106.48996183674734 60.159543692044295 H 0.0 **** 0.06
13998 H 91.8472189808175 106.4229671632263 60.42454689824589 H 0.0 **** 0.06
13999 H 90.84520472489487 104.98215316395101 60.72467303167126 H 0.0 **** 0.06
14000 H 90.73483362017294 106.38455666774189 61.81431547780387 H 0.0 **** 0.06
14001 C 57.591606223777546 10.18307695101791 71.67681699575394 C 0.0 **** -0.24
14002 H 58.00219345615646 10.81740378738899 70.89063304999794 H 0.0 **** 0.06
14003 H 58.294124243567396 10.137180564376806 72.51014503426623 H 0.0 **** 0.06
14004 H 57.42709058965127 9.179869533436847 71.28433896453686 H 0.0 **** 0.06
14005 H 56.64530641756163 10.598406326793373 72.02147866309633 H 0.0 **** 0.06
14006 C 67.67792423638201 58.093719592922184 103.30629498522626 C 0.0 **** -0.24
14007 H 68.41952691890697 58.49499318008651 103.99822750954417 H 0.0 **** 0.06
14008 H 67.91639338407074 58.415335351266776 102.29229037633172 H 0.0 **** 0.06
14009 H 66.68938516108841 58.46027394278656 103.58149112249617 H 0.0 **** 0.06
14010 H 67.68843588406196 57.00527624187896 103.35407650991942 H 0.0 **** 0.06
14011 C 70.17752075398083 100.86033946560306 114.52687872997647 C 0.0 **** -0.24
14012 H 71.12217766677402 101.26270901157899 114.16083688957335 H 0.0 **** 0.06
14013 H 69.39722633152888 101.03695089314013 113.78648249838048 H 0.0 **** 0.06
14014 H 69.91105602422026 101.3540463576034 115.46078104803533 H 0.0 **** 0.06
14015 H 70.2816747363486 99.78942911836135 114.69779234080117 H 0.0 **** 0.06
14016 C 82.44349156940831 79.57523157000946 80.21199020871143 C 0.0 **** -0.24
14017 H 82.2612851387098 78.67685016626268 80.80100648560801 H 0.0 **** 0.06
14018 H 81.98746560860899 80.43320600820158 80.70670808965951 H 0.0 **** 0.06
14019 H 82.008821068914 79.4536902545176 79.21974133458741 H 0.0 **** 0.06
14020 H 83.51771626132702 79.73765744738932 80.12066259686696 H 0.0 **** 0.06
14021 C 44.720003188786826 67.09177043055973 11.58031472064738 C 0.0 **** -0.24
14022 H 43.85230058943818 66.77900588170081 10.998503622004932 H 0.0 **** 0.06
14023 H 44.479959159030415 67.04484023528903 12.642502073508581 H 0.0 **** 0.06
14024 H 44.987563092840496 68.11377044507981 11.311611851442024 H 0.0 **** 0.06
14025 H 45.558563593571336 66.42920606990435 11.366341681416372 H 0.0 **** 0.06
14026 C 36.97931210251309 21.60081055530742 81.21192670956555 C 0.0 **** -0.24
14027 H 36.053794911470106 21.707607021792455 80.64634206962216 H 0.0 **** 0.06
14028 H 36.955236935542715 20.666355191060063 81.77323068702788 H 0.0 **** 0.06
14029 H 37.0806032254648 22.43740388821101 81.90336525741054 H 0.0 **** 0.06
14030 H 37.82634041916111 21.59125435393679 80.52576544652487 H 0.0 **** 0.06
14031 C 4.599800018615213 40.58714237358823 110.93285517175593 C 0.0 **** -0.24
14032 H 5.503336061341372 40.95738262379458 110.44659964948931 H 0.0 **** 0.06
14033 H 3.8369043184078464 41.365225454917564 110.91891258562748 H 0.0 **** 0.06
14034 H 4.827378878086108 40.317273922418586 111.96377000642505 H 0.0 **** 0.06
14035 H 4.234550157585375 39.70969844621825 110.39965612839953 H 0.0 **** 0.06
14036 C 52.34496172652588 14.355954105924866 85.19456502314819 C 0.0 **** -0.24
14037 H 53.01187498863182 13.522993745785541 84.97521549786161 H 0.0 **** 0.06
14038 H 52.648139934706144 14.827766561546895 86.130477769503 H 0.0 **** 0.06
14039 H 51.322724614961366 13.989226829730327 85.28634701593724 H 0.0 **** 0.06
14040 H 52.39811554748519 15.086023000283745 84.38580564104285 H 0.0 **** 0.06
14041 C 69.08258850635178 102.660128208461 82.76226429579998 C 0.0 **** -0.24
14042 H 69.96380083271885 103.26189334098024 82.54128900250197 H 0.0 **** 0.06
14043 H 68.19976149918608 103.30019134700876 82.7795928844165 H 0.0 **** 0.06
14044 H 69.20389648315052 102.18143618827634 83.73386805546795 H 0.0 **** 0.06
14045 H 68.96262259700137 101.89604980674494 81.99328834558253 H 0.0 **** 0.06
14046 C 31.961445086234022 2.7747922897931403 87.62073069011647 C 0.0 **** -0.24
14047 H 32.05049380252734 3.271023425078397 86.6545078787308 H 0.0 **** 0.06
14048 H 31.335253425180525 1.8886678466481612 87.51775486974647 H 0.0 **** 0.06
14049 H 31.509250556560517 3.458632335964637 88.33964341155779 H 0.0 **** 0.06
14050 H 32.95171769694633 2.4818166451543107 87.970589270414 H 0.0 **** 0.06
14051 C 81.70704325657645 83.75382504980426 115.78999659087434 C 0.0 **** -0.24
14052 H 80.84701270036346 84.41404967132702 115.67627558490905 H 0.0 **** 0.06
14053 H 81.37651560331143 82.71605014578037 115.7424224898728 H 0.0 **** 0.06
14054 H 82.18402050142642 83.9406489744532 116.7520376885392 H 0.0 **** 0.06
14055 H 82.42004638757491 83.94509131302355 114.98693220597686 H 0.0 **** 0.06
14056 C 20.97094890108302 83.9503819167243 111.39132766967619 C 0.0 **** -0.24
14057 H 20.537597997805378 84.37020605704912 112.2984633672916 H 0.0 **** 0.06
14058 H 21.351697147859028 84.75604965816424 110.76404481011782 H 0.0 **** 0.06
14059 H 20.206492593532246 83.39589813546901 110.84665541255849 H 0.0 **** 0.06
14060 H 21.787585403825375 83.27860832360888 111.65663247968594 H 0.0 **** 0.06
14061 C 26.735391552088345 66.20883122374121 65.75812653718073 C 0.0 **** -0.24
14062 H 27.068607887423084 65.69279640831824 66.65856392969488 H 0.0 **** 0.06
14063 H 26.885847635155983 67.28167848156298 65.87851874743545 H 0.0 **** 0.06
14064 H 25.676496971230748 66.00687778837755 65.593886825978 H 0.0 **** 0.06
14065 H 27.309907011421473 65.85430152281909 64.90271657862324 H 0.0 **** 0.06
14066 C 90.18488789215355 9.694919694564248 42.44816817563671 C 0.0 **** -0.24
14067 H 89.40805782522538 8.988363993271875 42.7440173977061 H 0.0 **** 0.06
14068 H 91.1579610832155 9.208023461461707 42.50409775910673 H 0.0 **** 0.06
14069 H 90.16773539275894 10.554412907573465 43.1179037445918 H 0.0 **** 0.06
14070 H 90.00195061697573 10.02741454884594 41.42640613168072 H 0.0 **** 0.06
14071 C 2.198227622129565 63.35375008948529 55.611382828914486 C 0.0 **** -0.24
14072 H 2.8712506392161004 64.15415982889874 55.30338633059176 H 0.0 **** 0.06
14073 H 1.2076302413020414 63.76659475166463 55.806046010552734 H 0.0 **** 0.06
14074 H 2.5818853437287714 62.88427448325558 56.51705603006053 H 0.0 **** 0.06
14075 H 2.132534552164927 62.609918498430375 54.81662525358212 H 0.0 **** 0.06
14076 C 114.66560639043868 56.50483154265132 7.941742501704539 C 0.0 **** -0.24
14077 H 114.79983031110828 55.46637472459092 8.243475650793187 H 0.0 **** 0.06
14078 H 115.30651699583476 57.14465160504909 8.54945667344981 H 0.0 **** 0.06
14079 H 113.6245738334259 56.79382984345489 8.08465411141799 H 0.0 **** 0.06
14080 H 114.9329666769055 56.615356876037325 6.890824244465989 H 0.0 **** 0.06
14081 C 103.1028201718425 94.5792468740078 31.63365982321787 C 0.0 **** -0.24
14082 H 103.64703594293513 94.58755459773383 32.57742550593825 H 0.0 **** 0.06
14083 H 102.43433772596518 93.71779799440321 31.60819048245679 H 0.0 **** 0.06
14084 H 103.80885687023891 94.51504006951743 30.806478374507975 H 0.0 **** 0.06
14085 H 102.51910126466026 95.49529077419527 31.54325318207333 H 0.0 **** 0.06
14086 C 83.24420712484846 47.981170852858725 3.235245722133129 C 0.0 **** -0.24
14087 H 82.98200486978692 47.16298759193711 3.906912121286979 H 0.0 **** 0.06
14088 H 83.19736740759967 48.925591329415795 3.7782370732958412 H 0.0 **** 0.06
14089 H 82.54273037658783 48.00451627252977 2.4020621627424816 H 0.0 **** 0.06
14090 H 84.25461548221713 47.82909250772076 2.8563715295933463 H 0.0 **** 0.06
14091 C 108.72157638623884 30.570991770333876 2.0535245065145062 C 0.0 **** -0.24
14092 H 109.01233928828724 31.60029024482685 1.8452000018510688 H 0.0 **** 0.06
14093 H 108.55638114396618 30.04364154752352 1.1146769385986772 H 0.0 **** 0.06
14094 H 107.80281809942753 30.565217947962424 2.6408902247859487 H 0.0 **** 0.06
14095 H 109.51462264642565 30.07563576036557 2.614475177961353 H 0.0 **** 0.06
14096 C 110.78374113296684 21.193118018324235 66.94253967270907 C 0.0 **** -0.24
14097 H 110.40274042467281 21.817596779174966 67.751026116933 H 0.0 **** 0.06
14098 H 111.54483226025556 21.74123338152971 66.38769341744293 H 0.0 **** 0.06
14099 H 109.96519997665271 20.92811382558852 66.2725905982915 H 0.0 **** 0.06
14100 H 111.21972763090861 20.28570454549768 67.36055058591472 H 0.0 **** 0.06
14101 C 23.065113986264805 72.81074724049984 85.01457255254915 C 0.0 **** -0.24
14102 H 23.22292788696774 71.95559747162258 85.67175608717835 H 0.0 **** 0.06
14103 H 23.60475584323089 72.65594952303684 84.07992988134599 H 0.0 **** 0.06
14104 H 23.43055442497365 73.71490975655303 85.50143699358037 H 0.0 **** 0.06
14105 H 22.00001484052254 72.91585442149045 84.80599667978838 H 0.0 **** 0.06
14106 C 85.67528859612653 114.93457712948016 55.31964128409231 C 0.0 **** -0.24
14107 H 86.18684586053219 115.89546956744638 55.36841013830821 H 0.0 **** 0.06
14108 H 85.39745091018091 114.61944599167731 56.32644178902228 H 0.0 **** 0.06
14109 H 86.33859904763692 114.19142574529845 54.87654553047602 H 0.0 **** 0.06
14110 H 84.77788966305141 115.03059585148966 54.70815936769043 H 0.0 **** 0.06
14111 C 33.18894242656944 88.14343740646353 110.35997571775198 C 0.0 **** -0.24
14112 H 32.142440325535006 87.97773947889362 110.10254388514568 H 0.0 **** 0.06
14113 H 33.468377140060454 87.4844034324691 111.18181268479472 H 0.0 **** 0.06
14114 H 33.32804321527283 89.18120541752086 110.66282564063272 H 0.0 **** 0.06
14115 H 33.81415332007265 87.93101939052377 109.4941435508303 H 0.0 **** 0.06
14116 C 58.11375321265484 109.54707466298666 4.944271700841796 C 0.0 **** -0.24
14117 H 57.7959122749848 109.1776579986145 3.9696574291466504 H 0.0 **** 0.06
14118 H 57.36508634175456 110.23818344502718 5.332034700839159 H 0.0 **** 0.06
14119 H 59.067976493934566 110.06318186626663 4.843198545621931 H 0.0 **** 0.06
14120 H 58.22498772902591 108.70834886896566 5.631998040812078 H 0.0 **** 0.06
14121 C 49.75594350522056 89.38587397467218 64.88168122973872 C 0.0 **** -0.24
14122 H 50.034670548728286 88.33251952530242 64.90215483177019 H 0.0 **** 0.06
14123 H 50.44738400036999 89.93234205712395 64.23875095132036 H 0.0 **** 0.06
14124 H 49.800745710532055 89.79354122711413 65.89176229002305 H 0.0 **** 0.06
14125 H 48.74283263884092 89.48631542304247 64.49383154987714 H 0.0 **** 0.06
14126 C 18.411996291367927 76.9473308536524 94.96567058940701 C 0.0 **** -0.24
14127 H 17.91324859100075 77.81904514346456 95.39006252959459 H 0.0 **** 0.06
14128 H 19.013571028299566 76.46320205304846 95.7360281600302 H 0.0 **** 0.06
14129 H 19.05668701282508 77.26177366867974 94.14510180583017 H 0.0 **** 0.06
14130 H 17.665282040887575 76.24743961444945 94.5934360996805 H 0.0 **** 0.06
14131 C 20.15165432032485 23.94317907033013 71.24717879465639 C 0.0 **** -0.24
14132 H 20.805137391660082 24.072771651256147 72.10969092395659 H 0.0 **** 0.06
14133 H 19.184061652957453 23.56671275079532 71.57921960654116 H 0.0 **** 0.06
14134 H 20.601101537919547 23.23109034890615 70.55605555876161 H 0.0 **** 0.06
14135 H 20.01722583979081 24.901176098701512 70.74661997301423 H 0.0 **** 0.06
14136 C 98.1586270653699 43.15173825155824 94.8574333843653 C 0.0 **** -0.24
14137 H 97.27157369013435 43.549234463451796 94.36395021176885 H 0.0 **** 0.06
14138 H 98.4037412333131 42.176656849839475 94.43418290647254 H 0.0 **** 0.06
14139 H 97.96469995377004 43.04710476317139 95.92490406762228 H 0.0 **** 0.06
14140 H 98.99545384937477 43.83429604975933 94.70571522055388 H 0.0 **** 0.06
14141 C 86.26644187755798 37.66848464622099 44.150839865541656 C 0.0 **** -0.24
14142 H 85.36761708379854 37.64424563686495 43.53458665249955 H 0.0 **** 0.06
14143 H 86.34801956442028 36.73668873040765 44.71085685636382 H 0.0 **** 0.06
14144 H 86.20686776486266 38.50592646581623 44.845838905436736 H 0.0 **** 0.06
14145 H 87.1416630984509 37.78767537635693 43.51236517914073 H 0.0 **** 0.06
14146 C 74.38100658184337 105.76968877500296 14.81904810998293 C 0.0 **** -0.24
14147 H 74.8178592666585 106.67397005662414 15.241795792261058 H 0.0 **** 0.06
14148 H 75.08630809077493 104.94453650786247 14.918018169823966 H 0.0 **** 0.06
14149 H 74.15725538676497 105.93295421642365 13.764298179491135 H 0.0 **** 0.06
14150 H 73.46071926310236 105.52795051411638 15.351942554342799 H 0.0 **** 0.06
14151 C 21.595168328831505 67.09623631305045 100.92818097908003 C 0.0 **** -0.24
14152 H 21.469019142530016 67.40596620892642 101.96638347376143 H 0.0 **** 0.06
14153 H 20.83424593328877 66.3568333305353 100.67601246376307 H 0.0 **** 0.06
14154 H 22.584736006823505 66.65946657741745 100.79730505257044 H 0.0 **** 0.06
14155 H 21.49028659438744 67.96318714209268 100.27567837312642 H 0.0 **** 0.06
14156 C 41.60777541182114 77.17879507064134 70.5886985782207 C 0.0 **** -0.24
14157 H 41.31635782653666 77.4051224183861 69.56340777308249 H 0.0 **** 0.06
14158 H 42.591785906066676 76.70857183737814 70.59095369256048 H 0.0 **** 0.06
14159 H 40.879084887808716 76.4995779188888 71.03252715294684 H 0.0 **** 0.06
14160 H 41.643873026872726 78.10190810791255 71.16790569429315 H 0.0 **** 0.06
14161 C 49.11964922526039 25.36635093215466 17.09161094211214 C 0.0 **** -0.24
14162 H 49.75286730522669 25.77075046178811 16.30183664143331 H 0.0 **** 0.06
14163 H 49.724551472722794 24.763132033610304 17.76792576023729 H 0.0 **** 0.06
14164 H 48.33919931225091 24.747103148247902 16.64959096410749 H 0.0 **** 0.06
14165 H 48.66338254601834 26.186426471569803 17.645359384881033 H 0.0 **** 0.06
14166 C 46.30667083846848 37.13072150451865 47.190116159544544 C 0.0 **** -0.24
14167 H 45.5384027077981 37.88093757140834 47.001331836958926 H 0.0 **** 0.06
14168 H 45.8585710364151 36.13763996043426 47.155544873121016 H 0.0 **** 0.06
14169 H 46.744349788378145 37.29804307096714 48.174017148938354 H 0.0 **** 0.06
14170 H 47.083289940361425 37.207064099970836 46.42929153012388 H 0.0 **** 0.06
14171 C 103.2564210950825 33.83545992939679 65.05819840447913 C 0.0 **** -0.24
14172 H 102.84277159329022 34.63167305320454 65.6780293254638 H 0.0 **** 0.06
14173 H 102.6007694219447 32.965597700349065 65.10017639197531 H 0.0 **** 0.06
14174 H 104.24529587533054 33.56502987027517 65.4272942687997 H 0.0 **** 0.06
14175 H 103.33503001608847 34.18167781783805 64.02764449296369 H 0.0 **** 0.06
14176 C 81.73857399123682 84.65098731032882 22.024974804501028 C 0.0 **** -0.24
14177 H 81.359204525944 83.84291894717913 22.65094678427448 H 0.0 **** 0.06
14178 H 82.69138194589544 85.00211950387222 22.422249001103296 H 0.0 **** 0.06
14179 H 81.0220277317614 85.47315458195067 22.019968339225073 H 0.0 **** 0.06
14180 H 81.88024633872698 84.28592216271966 21.008117934131917 H 0.0 **** 0.06
14181 C 108.49713333339935 64.1590856509464 105.42412405239415 C 0.0 **** -0.24
14182 H 108.64739373086763 64.07670278106227 104.34727890167778 H 0.0 **** 0.06
14183 H 109.36290764713885 64.64531573739742 105.87486206317686 H 0.0 **** 0.06
14184 H 108.376813593646 63.163605794017315 105.84987572917157 H 0.0 **** 0.06
14185 H 107.60300050287339 64.7496761710031 105.62175711939344 H 0.0 **** 0.06
14186 C 8.548764313075793 7.391537501139441 62.03091472977751 C 0.0 **** -0.24
14187 H 8.736998855832383 6.608734655552292 62.76526068393619 H 0.0 **** 0.06
14188 H 8.780658633068242 7.016726269307975 61.03355061891146 H 0.0 **** 0.06
14189 H 9.177292782006731 8.254792802004363 62.2508484318619 H 0.0 **** 0.06
14190 H 7.500106981395703 7.6858962776932085 62.07399918440019 H 0.0 **** 0.06
14191 C 1.299858691189101 68.14117154852893 82.84326056155612 C 0.0 **** -0.24
14192 H 1.7809843699775172 68.9393421103907 83.40892690684893 H 0.0 **** 0.06
14193 H 1.0961085458701376 67.29962074167543 83.50553443598358 H 0.0 **** 0.06
14194 H 1.959180919974159 67.81873757067814 82.03766012857926 H 0.0 **** 0.06
14195 H 0.3639772034354962 68.50768705397323 82.42260663545323 H 0.0 **** 0.06
14196 C 75.75676955777294 16.393055060211953 63.442460185937364 C 0.0 **** -0.24
14197 H 76.5182443734314 16.83889609522374 64.08183596895724 H 0.0 **** 0.06
14198 H 74.78092855070363 16.807662890244416 63.698808252778306 H 0.0 **** 0.06
14199 H 75.74351741824455 15.313180414236033 63.59089096850468 H 0.0 **** 0.06
14200 H 75.98279615979686 16.613695707971157 62.39930093381952 H 0.0 **** 0.06
14201 C 17.37302842250882 9.875634069845646 91.27840141564266 C 0.0 **** -0.24
14202 H 17.96940166065457 9.844281798099729 90.36622512537446 H 0.0 **** 0.06
14203 H 17.33400860899528 10.899567105764817 91.65207537917257 H 0.0 **** 0.06
14204 H 17.825596129799727 9.230260641824017 92.03047062543976 H 0.0 **** 0.06
14205 H 16.362314161649387 9.529099983366564 91.06312634383077 H 0.0 **** 0.06
14206 C 77.9707773766394 97.0827374751131 38.416052042815416 C 0.0 **** -0.24
14207 H 78.90544311454886 97.5064972428611 38.780913755052154 H 0.0 **** 0.06
14208 H 78.13911343450397 96.054922580192 38.09319585620701 H 0.0 **** 0.06
14209 H 77.60668544653346 97.67296907046098 37.5753616947492 H 0.0 **** 0.06
14210 H 77.23017563974145 97.09530338239517 39.21598438015146 H 0.0 **** 0.06
14211 C 81.64441310565473 84.7592673310992 82.09668374275282 C 0.0 **** -0.24
14212 H 81.908674507103 85.73057868495553 82.51604132135263 H 0.0 **** 0.06
14213 H 81.01882444102563 84.21670380867253 82.80568389709924 H 0.0 **** 0.06
14214 H 82.55237964063161 84.18922827987272 81.90119518830008 H 0.0 **** 0.06
14215 H 81.09818737234599 84.90232493022425 81.16465665536808 H 0.0 **** 0.06
14216 C 94.09311048730211 97.187254861898 5.2351433264023655 C 0.0 **** -0.24
14217 H 93.94094695291506 96.1088869887003 5.21558707549425 H 0.0 **** 0.06
14218 H 94.84216749890419 97.43598293011877 5.987130370554272 H 0.0 **** 0.06
14219 H 93.15323996955107 97.68238637273959 5.481591731001391 H 0.0 **** 0.06
14220 H 94.43467324446823 97.52421268570214 4.256256264279164 H 0.0 **** 0.06
14221 C 0.2104425193406314 98.7944065450916 84.87722325373628 C 0.0 **** -0.24
14222 H -0.46765496434068154 98.89272102660509 84.02999508342396 H 0.0 **** 0.06
14223 H 1.1526336907742802 98.36238896141404 84.53878832139225 H 0.0 **** 0.06
14224 H -0.2387474024276912 98.14492027110724 85.62838471022872 H 0.0 **** 0.06
14225 H 0.3962310346053073 99.77744786640619 85.30960378916524 H 0.0 **** 0.06
14226 C 89.64369761260039 3.2484966692300965 27.327579931584864 C 0.0 **** -0.24
14227 H 90.13539910395565 2.2784107803191933 27.258121018621097 H 0.0 **** 0.06
14228 H 89.2367198770765 3.5198612161851752 26.35327762524483 H 0.0 **** 0.06
14229 H 90.36732897175969 4.000958259908536 27.641517475533135 H 0.0 **** 0.06
14230 H 88.83629510046237 3.1944969693069147 28.057562634426944 H 0.0 **** 0.06
14231 C 97.28913345965356 3.7885851138632347 50.780894537601505 C 0.0 **** -0.24
14232 H 97.94203788515313 4.270524747714603 51.508740377315284 H 0.0 **** 0.06
14233 H 96.31038601523568 3.6144676221848044 51.231176959001566 H 0.0 **** 0.06
14234 H 97.72392048741415 2.836729495372083 50.47599345159743 H 0.0 **** 0.06
14235 H 97.17794116138174 4.433907861212788 49.90880024807503 H 0.0 **** 0.06
14236 C 25.806469973057347 45.56694853228913 18.49770600038636 C 0.0 **** -0.24
14237 H 26.05492732762002 46.52548274388869 18.954932143546785 H 0.0 **** 0.06
14238 H 24.780681207390217 45.29895119245913 18.750762097342317 H 0.0 **** 0.06
14239 H 26.485643509612487 44.80033835195394 18.871107539615423 H 0.0 **** 0.06
14240 H 25.905747385747986 45.64469582913745 17.414994168514284 H 0.0 **** 0.06
14241 C 38.531331724671475 112.72500755624758 108.82247839868644 C 0.0 **** -0.24
14242 H 37.846366924991514 112.1944309643076 108.16096704744405 H 0.0 **** 0.06
14243 H 38.00247445018954 113.02816746556347 109.72615843840855 H 0.0 **** 0.06
14244 H 38.91651731443619 113.60825550132496 108.31292890652443 H 0.0 **** 0.06
14245 H 39.359907298500616 112.06911097165 109.08844777166063 H 0.0 **** 0.06
14246 C 87.3415178031521 73.96179892753887 56.725799430323775 C 0.0 **** -0.24
14247 H 86.35957134203716 74.3942129850613 56.9195720321665 H 0.0 **** 0.06
14248 H 88.11548346876134 74.67626629285346 57.0085204257652 H 0.0 **** 0.06
14249 H 87.43325141307582 73.7284181032332 55.66548493191237 H 0.0 **** 0.06
14250 H 87.45798763003097 73.04871988933127 57.31049940744802 H 0.0 **** 0.06
14251 C 15.451395079262724 62.94274815489199 29.685015250082692 C 0.0 **** -0.24
14252 H 16.4616667966489 63.31702321873135 29.522280074969323 H 0.0 **** 0.06
14253 H 15.19116624291486 63.047363675445496 30.73835000408497 H 0.0 **** 0.06
14254 H 15.402702761663974 61.89165236953416 29.400480078083575 H 0.0 **** 0.06
14255 H 14.749533959454922 63.51618363930382 29.078475607926094 H 0.0 **** 0.06
14256 C 98.7621792874969 111.33678861116289 51.536811506293866 C 0.0 **** -0.24
14257 H 97.72472864311885 111.17219314367486 51.82973147652089 H 0.0 **** 0.06
14258 H 99.41236313161153 111.16627042136696 52.395669554341815 H 0.0 **** 0.06
14259 H 98.88211522546052 112.36108951655666 51.18660803250333 H 0.0 **** 0.06
14260 H 99.02713447745288 110.64539640919725 50.73710649530117 H 0.0 **** 0.06
14261 C 16.438991509588963 108.96047892639876 38.38774660798464 C 0.0 **** -0.24
14262 H 16.09569498935161 108.96310436818834 39.422696949963324 H 0.0 **** 0.06
14263 H 16.492743300387648 107.93287993870322 38.025691745204796 H 0.0 **** 0.06
14264 H 17.426761069972226 109.41793961447453 38.33209981198689 H 0.0 **** 0.06
14265 H 15.740848849383447 109.52689706773054 37.772446033627574 H 0.0 **** 0.06
14266 C 33.09235447846007 4.1415282588520625 76.87236014416175 C 0.0 **** -0.24
14267 H 33.43269721401032 3.419589033780511 77.61452462507259 H 0.0 **** 0.06
14268 H 33.489054427723204 5.127132868443766 77.11674156956417 H 0.0 **** 0.06
14269 H 32.00342991326073 4.176738750557831 76.87242197058436 H 0.0 **** 0.06
14270 H 33.446905562157696 3.8417542902658255 75.88601554388242 H 0.0 **** 0.06
14271 C 16.18309889267364 57.84707419419885 89.63691298539709 C 0.0 **** -0.24
14272 H 15.245962017453714 57.34436369592288 89.87275848316818 H 0.0 **** 0.06
14273 H 16.175924543405067 58.15920776005879 88.59218633832398 H 0.0 **** 0.06
14274 H 17.015024689321912 57.163801378944584 89.80696671312802 H 0.0 **** 0.06
14275 H 16.29541358933028 58.72271193545714 90.27741325400274 H 0.0 **** 0.06
14276 C 39.786373946627066 94.84981925909145 23.985357815087553 C 0.0 **** -0.24
14277 H 39.57634658217487 94.6350228387169 25.03291522687141 H 0.0 **** 0.06
14278 H 39.11575296386564 95.63423605757887 23.633750974849193 H 0.0 **** 0.06
14279 H 39.633968049487876 93.94815285887654 23.39197875224282 H 0.0 **** 0.06
14280 H 40.819428190979885 95.18186528119313 23.88278630638675 H 0.0 **** 0.06
14281 C 28.363761426218787 37.43079051230757 35.31657134367228 C 0.0 **** -0.24
14282 H 28.221243255115553 36.502547964639746 34.76133173856506 H 0.0 **** 0.06
14283 H 28.389135697991662 37.21411985278233 36.38487072515103 H 0.0 **** 0.06
14284 H 27.540302284352833 38.11156904939651 35.103027144895734 H 0.0 **** 0.06
14285 H 29.304672741264227 37.891998862470146 35.01647084677458 H 0.0 **** 0.06
14286 C 3.1089848955925845 15.501010260928286 103.94865145672364 C 0.0 **** -0.24
14287 H 2.0247849703434895 15.395740741050503 103.90121259828685 H 0.0 **** 0.06
14288 H 3.5650070892941983 14.929718623524451 103.13922804633758 H 0.0 **** 0.06
14289 H 3.4686748723339207 15.124963605403778 104.90718871303184 H 0.0 **** 0.06
14290 H 3.376925967752257 16.552320468186682 103.84710864960927 H 0.0 **** 0.06
14291 C 51.771347588346394 78.80169108220886 109.3584351688317 C 0.0 **** -0.24
14292 H 52.05497415223921 79.52137862378362 108.59132025031636 H 0.0 **** 0.06
14293 H 50.721514069208105 78.53513037765231 109.236113745083 H 0.0 **** 0.06
14294 H 51.921795290847754 79.24316201985215 110.34397537348457 H 0.0 **** 0.06
14295 H 52.38813131815889 77.90756719507189 109.26318335754121 H 0.0 **** 0.06
14296 C 95.57455098236495 13.897194774423497 85.44536170640504 C 0.0 **** -0.24
14297 H 96.08384681930772 13.664258554712376 86.38120095435607 H 0.0 **** 0.06
14298 H 96.31387562053176 14.094646595022652 84.66951289414112 H 0.0 **** 0.06
14299 H 94.94731568530608 14.778537726159925 85.58279930379854 H 0.0 **** 0.06
14300 H 94.95338156467626 13.052588372820907 85.15002792891022 H 0.0 **** 0.06
14301 C 62.96565871426384 82.56503617742399 95.58671165478574 C 0.0 **** -0.24
14302 H 63.05822325522968 81.5071775930864 95.33765811832758 H 0.0 **** 0.06
14303 H 63.875643797753355 82.90177748957245 96.08480208193016 H 0.0 **** 0.06
14304 H 62.113655629078664 82.7070193870868 96.25140410452832 H 0.0 **** 0.06
14305 H 62.814751537545646 83.14156300703459 94.67442203270225 H 0.0 **** 0.06
14306 C 77.24370985894654 63.657604517308854 21.047898208960248 C 0.0 **** -0.24
14307 H 76.62655223650697 62.78083623070408 21.24197125575273 H 0.0 **** 0.06
14308 H 78.00691291106621 63.74331378553211 21.822118230319433 H 0.0 **** 0.06
14309 H 76.61923156895004 64.55103124861694 21.051376798303806 H 0.0 **** 0.06
14310 H 77.72357572328858 63.55500257404144 20.074425986876236 H 0.0 **** 0.06
14311 C 102.29434529209279 29.116999863148415 31.33652165579735 C 0.0 **** -0.24
14312 H 102.51004832636514 30.081941103703244 30.87919345559841 H 0.0 **** 0.06
14313 H 102.15315104908755 29.247673167673497 32.409290602350175 H 0.0 **** 0.06
14314 H 103.12740598166572 28.436674275348935 31.15942128423611 H 0.0 **** 0.06
14315 H 101.38677581125253 28.70171090586816 30.898181281004476 H 0.0 **** 0.06
14316 C 104.9494175416 42.16849018824456 83.07756438105099 C 0.0 **** -0.24
14317 H 105.09600884889484 42.63923661975247 84.04939014104883 H 0.0 **** 0.06
14318 H 104.73073234117635 42.934168644924 82.33220076078436 H 0.0 **** 0.06
14319 H 104.1165224335166 41.46761095899606 83.13440277720798 H 0.0 **** 0.06
14320 H 105.85543712752877 41.63302130541604 82.79329838449803 H 0.0 **** 0.06
14321 C 82.94975347449565 91.84215180211788 63.646861875199875 C 0.0 **** -0.24
14322 H 83.12645752856616 92.86983484072147 63.33059653957238 H 0.0 **** 0.06
14323 H 83.6184424433664 91.59654830384454 64.47182098581476 H 0.0 **** 0.06
14324 H 83.14125788557772 91.16781690868666 62.810907219336286 H 0.0 **** 0.06
14325 H 81.91504019183958 91.73474090759453 63.971273399769416 H 0.0 **** 0.06
14326 C 36.37712328868636 103.14919574002255 15.562908696294357 C 0.0 **** -0.24
14327 H 36.72933229339529 102.42987947352509 16.3014223453049 H 0.0 **** 0.06
14328 H 36.198891168712976 102.6397836416341 14.615786111160531 H 0.0 **** 0.06
14329 H 37.129753519379534 103.92527688885326 15.422614863928231 H 0.0 **** 0.06
14330 H 35.448460134623886 103.60270810487259 15.911654917628539 H 0.0 **** 0.06
14331 C 95.44300828530807 3.9058789889025434 58.65191408823354 C 0.0 **** -0.24
14332 H 96.29745457098579 3.726467299561051 57.99944681869903 H 0.0 **** 0.06
14333 H 94.60523435932701 3.2857932783265937 58.332880990393136 H 0.0 **** 0.06
14334 H 95.15948635920714 4.957182770210181 58.597212532613256 H 0.0 **** 0.06
14335 H 95.71152380995039 3.6555380376406674 59.67839418742864 H 0.0 **** 0.06
14336 C 82.6162531996622 101.72800809161669 84.20734059708745 C 0.0 **** -0.24
14337 H 83.67022865525206 101.95804546280984 84.36085951508613 H 0.0 **** 0.06
14338 H 82.5046055276157 101.11063738162174 83.31535078572504 H 0.0 **** 0.06
14339 H 82.05677599571158 102.65531810389258 84.08149151797925 H 0.0 **** 0.06
14340 H 82.23297241391373 101.18767604304641 85.07404572623709 H 0.0 **** 0.06
14341 C 31.739591571989024 34.17283235999844 94.54662651062719 C 0.0 **** -0.24
14342 H 32.37003531161821 35.06119651705717 94.58743560101414 H 0.0 **** 0.06
14343 H 31.320887252348626 34.07141430125864 93.54496805056908 H 0.0 **** 0.06
14344 H 30.931128127247803 34.26906481085945 95.27109300854977 H 0.0 **** 0.06
14345 H 32.336126718610075 33.29227229004829 94.78195660202323 H 0.0 **** 0.06
14346 C 65.60476280957914 68.04436507162751 3.448036932849618 C 0.0 **** -0.24
14347 H 65.03682867090004 67.11630968569665 3.5131258504457605 H 0.0 **** 0.06
14348 H 65.2472580009935 68.74223614912052 4.2044229188611695 H 0.0 **** 0.06
14349 H 65.47271483594662 68.4811264744198 2.458279716376751 H 0.0 **** 0.06
14350 H 66.66105336853246 67.83631534806017 3.6151358752698286 H 0.0 **** 0.06
14351 C 25.825966724268255 97.94239744870121 93.57270384951909 C 0.0 **** -0.24
14352 H 26.65840003864008 98.03714900591415 94.26961879831549 H 0.0 **** 0.06
14353 H 25.105070811281053 98.73915853519142 93.75970515068008 H 0.0 **** 0.06
14354 H 25.34375651090309 96.97503123365618 93.71268048945649 H 0.0 **** 0.06
14355 H 26.19632491963924 98.01913336585967 92.55107432513185 H 0.0 **** 0.06
14356 C 68.76855663637575 61.06042146123042 19.216280715230795 C 0.0 **** -0.24
14357 H 68.1931471558889 60.65958879666792 20.050601783414407 H 0.0 **** 0.06
14358 H 68.64703715549027 62.14377529266224 19.178569379105255 H 0.0 **** 0.06
14359 H 68.41155470532108 60.62144127236269 18.285112352667568 H 0.0 **** 0.06
14360 H 69.8221622392198 60.81728250769453 19.353014856555518 H 0.0 **** 0.06
14361 C 9.58037172096789 12.911877367238468 105.29017219927175 C 0.0 **** -0.24
14362 H 9.543448937445305 13.994731136085747 105.1716438449775 H 0.0 **** 0.06
14363 H 8.989439359256494 12.621252557076268 106.15897870228639 H 0.0 **** 0.06
14364 H 10.614521925390079 12.597653384160292 105.43152354128546 H 0.0 **** 0.06
14365 H 9.1736993126612 12.434771854025879 104.39832218210785 H 0.0 **** 0.06
14366 C 72.20388751119967 5.545319998865452 67.70962553755692 C 0.0 **** -0.24
14367 H 72.4649932859196 5.595755310486169 68.76703919834233 H 0.0 **** 0.06
14368 H 72.3686088018145 6.51989916858534 67.24780304702517 H 0.0 **** 0.06
14369 H 71.15573764059732 5.265728522437868 67.60655774451868 H 0.0 **** 0.06
14370 H 72.828982864885 4.800402404311171 67.21734297258672 H 0.0 **** 0.06
14371 C 21.095896907153314 88.00795641372636 15.894934605452523 C 0.0 **** -0.24
14372 H 21.53506111580619 88.56389947155724 15.066506168135867 H 0.0 **** 0.06
14373 H 20.57806695293862 87.12964116149747 15.510272443336149 H 0.0 **** 0.06
14374 H 20.387385686895136 88.64527737529195 16.424365826080916 H 0.0 **** 0.06
14375 H 21.884253584557715 87.69458385614114 16.57965423339768 H 0.0 **** 0.06
14376 C 67.72884765356028 5.138801323345774 45.012097509540695 C 0.0 **** -0.24
14377 H 68.63810828159455 4.871747891874634 44.473135400699675 H 0.0 **** 0.06
14378 H 67.25371671933704 5.989202402592724 44.52277944454329 H 0.0 **** 0.06
14379 H 67.97981698008772 5.403545825278172 46.03958928101969 H 0.0 **** 0.06
14380 H 67.04467209028405 4.290669170449405 45.01250422660888 H 0.0 **** 0.06
14381 C 85.31985617006623 41.14599428407905 102.08635958142904 C 0.0 **** -0.24
14382 H 84.32371084755593 41.53704660406757 101.87706269543645 H 0.0 **** 0.06
14383 H 85.829656454175 40.9293328953472 101.14693521598359 H 0.0 **** 0.06
14384 H 85.23590840978085 40.231840807873226 102.67301849494915 H 0.0 **** 0.06
14385 H 85.89006551603512 41.88672431750322 102.64640764875786 H 0.0 **** 0.06
14386 C 3.9464984343517795 52.43370921477484 109.40452817981478 C 0.0 **** -0.24
14387 H 3.5611902793668015 53.406202056842744 109.71191862463257 H 0.0 **** 0.06
14388 H 3.683636471586123 52.25319088325031 108.36142637844875 H 0.0 **** 0.06
14389 H 3.5104665019933847 51.654920993365124 110.02956623392268 H 0.0 **** 0.06
14390 H 5.031099211864722 52.421605217879204 109.51328577239224 H 0.0 **** 0.06
14391 C 44.70820871503987 11.495373179489604 52.58156502608523 C 0.0 **** -0.24
14392 H 44.121481521477335 12.369504959134701 52.29834530082144 H 0.0 **** 0.06
14393 H 45.75710934668115 11.77741780140272 52.67700030677503 H 0.0 **** 0.06
14394 H 44.60643231950475 10.725670405107934 51.81685087731711 H 0.0 **** 0.06
14395 H 44.34737772508251 11.109748660278143 53.53510804224862 H 0.0 **** 0.06
14396 C 99.14891709642836 99.29644115948406 51.94691970331376 C 0.0 **** -0.24
14397 H 98.80323596886976 100.21861367812511 51.47999042848082 H 0.0 **** 0.06
14398 H 100.23819596876885 99.30508306916386 52.00430882956823 H 0.0 **** 0.06
14399 H 98.82246128313119 98.44415970024639 51.35125247087701 H 0.0 **** 0.06
14400 H 98.73282660944832 99.21930747259194 52.95041337053236 H 0.0 **** 0.06
14401 C 62.419067394401225 21.29937606418406 5.1171285888920295 C 0.0 **** -0.24
14402 H 62.71204157422517 20.253210604931894 5.207939056219516 H 0.0 **** 0.06
14403 H 61.36131919024311 21.359336670161213 4.859549368809908 H 0.0 **** 0.06
14404 H 63.011143200277274 21.775720073214018 4.33477619987373 H 0.0 **** 0.06
14405 H 62.59226271229659 21.809210020809473 6.065382420992847 H 0.0 **** 0.06
14406 C 58.54146383939468 32.00547664336736 16.50228726575466 C 0.0 **** -0.24
14407 H 58.77191484410943 32.048197896594274 15.437725012960414 H 0.0 **** 0.06
14408 H 59.03672824258382 32.83193751842086 17.0140169462073 H 0.0 **** 0.06
14409 H 58.893542149900895 31.059584331571358 16.91353674544477 H 0.0 **** 0.06
14410 H 57.463446507106994 32.08438655181678 16.644204261623496 H 0.0 **** 0.06
14411 C 115.81556684873573 47.31309832146802 74.8501613097572 C 0.0 **** -0.24
14412 H 115.08734477573552 46.8978186363052 75.54822438765649 H 0.0 **** 0.06
14413 H 116.8047767612353 46.9166355530794 75.07804187191769 H 0.0 **** 0.06
14414 H 115.82802903578948 48.39949231302407 74.94416879920885 H 0.0 **** 0.06
14415 H 115.53951795699395 47.03977352170199 73.83232829369496 H 0.0 **** 0.06
14416 C 40.96962780432665 56.32653687182972 94.11712600045212 C 0.0 **** -0.24
14417 H 41.782616741859215 56.20029606025278 93.4017171432894 H 0.0 **** 0.06
14418 H 40.62922122320947 57.36195008398704 94.09990966111923 H 0.0 **** 0.06
14419 H 41.32366095493202 56.07703819245239 95.11769160376554 H 0.0 **** 0.06
14420 H 40.14387579017887 55.66794276993277 93.84888740588099 H 0.0 **** 0.06
14421 C 81.57952736578852 84.38249928721967 55.38936885569258 C 0.0 **** -0.24
14422 H 81.6653058968052 85.39211358740852 55.79387681342555 H 0.0 **** 0.06
14423 H 82.48231963877748 83.81921541428164 55.62629070877048 H 0.0 **** 0.06
14424 H 81.45679547958866 84.43479238986504 54.30803643160973 H 0.0 **** 0.06
14425 H 80.71436076530284 83.88732047525718 55.83056865971728 H 0.0 **** 0.06
14426 C 33.35596619976897 114.8066930224933 95.50624663345685 C 0.0 **** -0.24
14427 H 34.40388614363434 115.10240067758082 95.47252350647602 H 0.0 **** 0.06
14428 H 33.046176301612746 114.68637890481357 96.54493010535548 H 0.0 **** 0.06
14429 H 33.22669968829166 113.86279107657617 94.97716080805895 H 0.0 **** 0.06
14430 H 32.745998508073626 115.5764667328014 95.03215542233039 H 0.0 **** 0.06
14431 C 0.8328519175311158 72.66498226718247 21.94416538946058 C 0.0 **** -0.24
14432 H 1.4515947838946204 71.77338782236467 21.845915058382758 H 0.0 **** 0.06
14433 H 1.3666099700024006 73.41514412370852 22.52862509626584 H 0.0 **** 0.06
14434 H -0.09845886154869277 72.40647945504023 22.44719921741691 H 0.0 **** 0.06
14435 H 0.6125371626573042 73.06472597490705 20.95382807931955 H 0.0 **** 0.06
14436 C 61.34683638294791 115.82601561623261 32.92013795187711 C 0.0 **** -0.24
14437 H 61.261396575716844 115.16674744416117 33.78415131446121 H 0.0 **** 0.06
14438 H 60.72668734063376 115.44449836952687 32.10843273367223 H 0.0 **** 0.06
14439 H 62.38639915201571 115.86654333390814 32.595742703970046 H 0.0 **** 0.06
14440 H 61.01377705346508 116.82746605312089 33.193880709569584 H 0.0 **** 0.06
14441 C 99.81760278447643 88.92109749937116 51.35834924025073 C 0.0 **** -0.24
14442 H 100.09442879260428 87.91557130827232 51.674092735773456 H 0.0 **** 0.06
14443 H 99.22259684386987 88.86419590335723 50.44628797513972 H 0.0 **** 0.06
14444 H 100.71973280417268 89.50298344542534 51.1689931263136 H 0.0 **** 0.06
14445 H 99.23394892067631 89.40083958686459 52.1445453332973 H 0.0 **** 0.06
14446 C 109.70234791613213 22.009660113912133 40.91733714847215 C 0.0 **** -0.24
14447 H 109.60774529065623 22.27426678667524 39.8636738877683 H 0.0 **** 0.06
14448 H 108.78312849407325 21.530720128216416 41.254627377966614 H 0.0 **** 0.06
14449 H 109.87871830204638 22.911659101788757 41.50398603013825 H 0.0 **** 0.06
14450 H 110.53860479755075 21.322659927927532 41.04599837972162 H 0.0 **** 0.06
14451 C 101.31210901280144 16.538712226753802 0.3236283051572286 C 0.0 **** -0.24
14452 H 101.60661631283654 16.230907021231474 1.3262697584978014 H 0.0 **** 0.06
14453 H 101.86371355848566 15.953595034952968 -0.4125991616627971 H 0.0 **** 0.06
14454 H 101.53609454469549 17.596994187323048 0.18860481722055056 H 0.0 **** 0.06
14455 H 100.24332641083102 16.3738488257504 0.1920787412978484 H 0.0 **** 0.06
14456 C 34.28999650985418 93.40841953947813 80.31907350462035 C 0.0 **** -0.24
14457 H 34.17304276409135 92.8638162742246 81.25613202627386 H 0.0 **** 0.06
14458 H 34.314295693805605 92.70144897143129 79.49009962633642 H 0.0 **** 0.06
14459 H 35.22017360131167 93.97495103938175 80.34194517102685 H 0.0 **** 0.06
14460 H 33.45107415707815 94.09253203896498 80.18989939721115 H 0.0 **** 0.06
14461 C 12.87501899711906 40.26481929548174 49.672235164848075 C 0.0 **** -0.24
14462 H 12.753123847701513 39.22104686260036 49.383530799769176 H 0.0 **** 0.06
14463 H 12.339461466027998 40.449119768862886 50.60255227036549 H 0.0 **** 0.06
14464 H 12.474711960915823 40.90721385973973 48.88782451908162 H 0.0 **** 0.06
14465 H 13.934560145986065 40.48139412325838 49.81267204557287 H 0.0 **** 0.06
14466 C 89.60025003304564 114.39735900952498 79.96916955941924 C 0.0 **** -0.24
14467 H 89.42444724464669 113.82976586420506 79.05554603926868 H 0.0 **** 0.06
14468 H 90.29213511806157 115.21371475414423 79.76251800018139 H 0.0 **** 0.06
14469 H 90.02800457718274 113.74203052503421 80.72842987523842 H 0.0 **** 0.06
14470 H 88.65571865766866 114.80377948937488 80.33140767603146 H 0.0 **** 0.06
14471 C 81.98120259674467 66.94072982110262 52.80332880673243 C 0.0 **** -0.24
14472 H 81.7845380168365 67.4350429174334 53.755071524947006 H 0.0 **** 0.06
14473 H 82.1731383656114 67.69283351485996 52.03749768994943 H 0.0 **** 0.06
14474 H 81.11509929845143 66.34310454193417 52.51838376249093 H 0.0 **** 0.06
14475 H 82.85253756774416 66.2939048323314 52.90330044200489 H 0.0 **** 0.06
14476 C 0.8323109436574043 107.77113487736791 59.0907976593802 C 0.0 **** -0.24
14477 H 1.0610253868496216 108.50996596206453 59.85835537171744 H 0.0 **** 0.06
14478 H 1.7530539206838682 107.27894664713311 58.7747774514952 H 0.0 **** 0.06
14479 H 0.37274657601216177 108.26529633561988 58.23520806093018 H 0.0 **** 0.06
14480 H 0.14385299176433364 107.02842676418409 59.49428728473032 H 0.0 **** 0.06
14481 C 10.267698612313737 92.49194527486281 59.12913046997983 C 0.0 **** -0.24
14482 H 11.300280760117388 92.74828462579268 59.37059666008122 H 0.0 **** 0.06
14483 H 9.956342945971159 93.04039956997951 58.240485967776806 H 0.0 **** 0.06
14484 H 9.622770370671503 92.75799361410026 59.96656547837077 H 0.0 **** 0.06
14485 H 10.19468811452677 91.42074035847969 58.94062301050121 H 0.0 **** 0.06
14486 C 24.276366719912744 14.3065037215137 115.13822382831123 C 0.0 **** -0.24
14487 H 24.509339858656404 13.30585104578272 114.77418633919919 H 0.0 **** 0.06
14488 H 23.44933177026941 14.252066449256656 115.84693490711442 H 0.0 **** 0.06
14489 H 23.99240634747927 14.940978137140316 114.29795819086485 H 0.0 **** 0.06
14490 H 25.151734056128866 14.726332602976903 115.63266111249465 H 0.0 **** 0.06
14491 C 0.25476414651456025 71.2945466318784 42.419477916493804 C 0.0 **** -0.24
14492 H -0.462441923936467 71.12215232723015 41.61704149843979 H 0.0 **** 0.06
14493 H 0.07683911580937774 70.58267673135839 43.225399421510815 H 0.0 **** 0.06
14494 H 0.13791840872332273 72.31032324343715 42.79811830538404 H 0.0 **** 0.06
14495 H 1.2666661998491122 71.16505764404614 42.03597384511522 H 0.0 **** 0.06
14496 C 47.56981111628939 37.447085677292506 73.46627684560644 C 0.0 **** -0.24
14497 H 47.88536953946627 37.48046407535239 74.50950710323656 H 0.0 **** 0.06
14498 H 47.50989630092771 38.462501118301674 73.07287587172738 H 0.0 **** 0.06
14499 H 46.59126612286221 36.972167372999536 73.39818989212233 H 0.0 **** 0.06
14500 H 48.29361188821855 36.874428848387254 72.88537477175188 H 0.0 **** 0.06
14501 C 38.43423291758771 50.34952702989105 38.574617973930344 C 0.0 **** -0.24
14502 H 37.69062845626627 51.14552029242378 38.54625174622049 H 0.0 **** 0.06
14503 H 39.34271258654161 50.71780146205069 39.05261406594883 H 0.0 **** 0.06
14504 H 38.66234803860959 50.02979671976715 37.5570656833911 H 0.0 **** 0.06
14505 H 38.041279905049635 49.50500805036157 39.14112675859195 H 0.0 **** 0.06
14506 C 30.306093759408554 89.73372006243949 22.63688022672831 C 0.0 **** -0.24
14507 H 30.90274228890604 90.53706520887363 23.071105703348774 H 0.0 **** 0.06
14508 H 29.85244380419016 90.0793561446701 21.707832871984973 H 0.0 **** 0.06
14509 H 29.523208823793084 89.44427981502048 23.338886746793904 H 0.0 **** 0.06
14510 H 30.946475905988052 88.8765074136981 22.432403684478743 H 0.0 **** 0.06
14511 C 35.85856645395074 39.38341969665033 71.83498227528918 C 0.0 **** -0.24
14512 H 36.4255982029394 39.39254608220647 72.76674423777087 H 0.0 **** 0.06
14513 H 36.53969849173515 39.23363843276437 70.99745182278457 H 0.0 **** 0.06
14514 H 35.340006132546335 40.334361679669136 71.71625129335115 H 0.0 **** 0.06
14515 H 35.13020665654116 38.573424071484304 71.86219630825548 H 0.0 **** 0.06
14516 C 14.086354787660184 55.310560920963 11.791437321756348 C 0.0 **** -0.24
14517 H 15.006584854074816 55.61238052092964 12.292765730326352 H 0.0 **** 0.06
14518 H 13.862702799593222 54.272007915325275 12.038471902710938 H 0.0 **** 0.06
14519 H 14.212383009431846 55.40873348419016 10.712747539857645 H 0.0 **** 0.06
14520 H 13.267349662358043 55.94810587831109 12.121781819467344 H 0.0 **** 0.06
14521 C 13.633060341464997 7.438892781384112 97.93452788470302 C 0.0 **** -0.24
14522 H 13.697191100695175 8.283985054664214 98.61999112397555 H 0.0 **** 0.06
14523 H 14.35224171105061 6.675328170104166 98.23101700652296 H 0.0 **** 0.06
14524 H 13.855818113555387 7.774891390591847 96.92218336757813 H 0.0 **** 0.06
14525 H 12.626229474530238 7.022036005678245 97.9659063572161 H 0.0 **** 0.06
14526 C 24.272626254890355 40.192675310873824 54.91739088897724 C 0.0 **** -0.24
14527 H 24.185849016042596 39.99833730685117 55.98672949008033 H 0.0 **** 0.06
14528 H 23.27671493940818 40.25543386329008 54.47885859925414 H 0.0 **** 0.06
14529 H 24.828202080949836 39.38330901696111 54.44402925000748 H 0.0 **** 0.06
14530 H 24.799012755657657 41.1348676078174 54.76133147127598 H 0.0 **** 0.06
14531 C 79.39783687266863 96.43335355399813 12.47573130219935 C 0.0 **** -0.24
14532 H 79.36413539277261 96.31755077631755 11.392851148001654 H 0.0 **** 0.06
14533 H 78.71357950776826 97.22706028695808 12.777542668895379 H 0.0 **** 0.06
14534 H 80.4115403229124 96.69281079077165 12.781629705622365 H 0.0 **** 0.06
14535 H 79.1021939425467 95.49819582269399 12.951268711027495 H 0.0 **** 0.06
14536 C 9.963471236206697 11.194732407404544 27.904698190204883 C 0.0 **** -0.24
14537 H 9.77527427112679 10.947262086672538 26.859539375098308 H 0.0 **** 0.06
14538 H 9.072902106291025 10.978426256536977 28.494432710585755 H 0.0 **** 0.06
14539 H 10.207959162413562 12.253313680656163 27.988584162564152 H 0.0 **** 0.06
14540 H 10.798255028407873 10.598175352274708 28.2738543991247 H 0.0 **** 0.06
14541 C 90.08172059067817 83.08284047913871 42.09376540736144 C 0.0 **** -0.24
14542 H 89.95961275554279 82.70577882374836 41.07765723313683 H 0.0 **** 0.06
14543 H 89.11957642726543 83.42963574165265 42.46931852979597 H 0.0 **** 0.06
14544 H 90.79086221307116 83.9105008167225 42.09092494063651 H 0.0 **** 0.06
14545 H 90.45680295671619 82.28472290973971 42.73408259006624 H 0.0 **** 0.06
14546 C 46.34771954692728 76.77476788897138 6.0732279511230445 C 0.0 **** -0.24
14547 H 47.400471224210925 76.93645636193105 5.839580032193737 H 0.0 **** 0.06
14548 H 45.94126069680846 76.01504131694787 5.406584703680778 H 0.0 **** 0.06
14549 H 45.79902105148121 77.70758164322467 5.9399610590752445 H 0.0 **** 0.06
14550 H 46.25225923251618 76.44108915517603 7.106292983418143 H 0.0 **** 0.06
14551 C 93.36330488477103 35.568932514941636 93.21923651080488 C 0.0 **** -0.24
14552 H 93.55421438254766 36.37905820895364 93.92342931686946 H 0.0 **** 0.06
14553 H 92.55819234167367 35.85800883482244 92.54384905314998 H 0.0 **** 0.06
14554 H 93.07539014226853 34.67199043740089 93.76588215266145 H 0.0 **** 0.06
14555 H 94.26693151881139 35.36941839362197 92.6426971693162 H 0.0 **** 0.06
14556 C 100.36386408557213 72.5679019370512 20.986415507627697 C 0.0 **** -0.24
14557 H 99.87973728908852 73.16133998544885 20.211214213361757 H 0.0 **** 0.06
14558 H 99.77567022341567 72.61780764994711 21.902996645238602 H 0.0 **** 0.06
14559 H 101.36359066767311 72.96081026770534 21.172830061928124 H 0.0 **** 0.06
14560 H 100.4363770192407 71.53089793315122 20.657062836951695 H 0.0 **** 0.06
14561 C 20.54814002191735 103.29006221577266 98.79329013224742 C 0.0 **** -0.24
14562 H 21.49874353095906 103.71557318365602 99.11636906206618 H 0.0 **** 0.06
14563 H 19.97589078829563 102.97596807761117 99.66642085709617 H 0.0 **** 0.06
14564 H 20.735734021741347 102.42795106691192 98.15207449251176 H 0.0 **** 0.06
14565 H 19.984339442907466 104.0401362352358 98.23835009423789 H 0.0 **** 0.06
14566 C 54.22110788494997 90.24214715738293 37.11515851236058 C 0.0 **** -0.24
14567 H 54.384868001273276 89.28144342848952 37.603805162668664 H 0.0 **** 0.06
14568 H 53.92514705053212 90.9810000255842 37.859685987722 H 0.0 **** 0.06
14569 H 53.431587614440296 90.13951401720749 36.37014255154847 H 0.0 **** 0.06
14570 H 55.141336430725225 90.56342244179473 36.62821589230859 H 0.0 **** 0.06
14571 C 14.606489341495774 48.32005189634964 31.097093446928668 C 0.0 **** -0.24
14572 H 14.372388419267395 48.92815078381321 30.2240012491894 H 0.0 **** 0.06
14573 H 15.101756784387334 47.402602741579585 30.778324264318172 H 0.0 **** 0.06
14574 H 13.684717865006206 48.07115898663773 31.624238870692764 H 0.0 **** 0.06
14575 H 15.266278171460158 48.877738369758845 31.761654237374316 H 0.0 **** 0.06
14576 C 24.25722239473197 114.45221026628624 0.6441269827334679 C 0.0 **** -0.24
14577 H 23.477657703471948 115.0774232886998 0.20873735598060783 H 0.0 **** 0.06
14578 H 24.757159922098538 114.99973403290262 1.4432544822448943 H 0.0 **** 0.06
14579 H 24.982935799034976 114.18886646673496 -0.12552856875362295 H 0.0 **** 0.06
14580 H 23.811163950720072 113.54348140519903 1.0487963527804993 H 0.0 **** 0.06
14581 C 9.284296675422553 69.8225404299506 67.31354915359285 C 0.0 **** -0.24
14582 H 8.519994769323091 70.48336438964117 67.72113568490654 H 0.0 **** 0.06
14583 H 9.38821955745172 70.00305306338879 66.24303252545057 H 0.0 **** 0.06
14584 H 8.993450776244089 68.78475095652976 67.4808402477623 H 0.0 **** 0.06
14585 H 10.23498601875724 70.01683788574343 67.80944812489076 H 0.0 **** 0.06
14586 C 56.419528393848 38.755386892535746 88.11430081921552 C 0.0 **** -0.24
14587 H 56.76797415857527 37.763231112538186 88.40118234632621 H 0.0 **** 0.06
14588 H 57.06164652716859 39.152345452885534 87.32793400431933 H 0.0 **** 0.06
14589 H 56.454286383210615 39.41627926828916 88.98103651559603 H 0.0 **** 0.06
14590 H 55.39546793100442 38.688404914649524 87.74837448844141 H 0.0 **** 0.06
14591 C 45.14664709383044 96.3203025541461 56.70704813567997 C 0.0 **** -0.24
14592 H 44.3030407723503 95.70355331958211 57.01764004447628 H 0.0 **** 0.06
14593 H 44.77721211075104 97.21909292239874 56.21285966397264 H 0.0 **** 0.06
14594 H 45.77262450546928 95.75591819727772 56.01535732874323 H 0.0 **** 0.06
14595 H 45.73300437966489 96.59991242798209 57.582162408192815 H 0.0 **** 0.06
14596 C 88.64628601652663 84.05827605910818 80.48965809054329 C 0.0 **** -0.24
14597 H 88.93889022273487 84.99801267059154 80.95669273817668 H 0.0 **** 0.06
14598 H 88.71033837899921 84.1564364590812 79.4049689603444 H 0.0 **** 0.06
14599 H 87.6217658233574 83.81503206846763 80.77207323776167 H 0.0 **** 0.06
14600 H 89.31342579019423 83.26363987661784 80.82278176032838 H 0.0 **** 0.06
14601 C 65.99362228588551 21.459019751314273 25.022722787237427 C 0.0 **** -0.24
14602 H 65.22416891635744 20.966134561259054 24.429564980790474 H 0.0 **** 0.06
14603 H 65.53211887138086 22.207447247429897 25.667101130918866 H 0.0 **** 0.06
14604 H 66.70941267580561 21.943288799576436 24.357888067331302 H 0.0 **** 0.06
14605 H 66.5093581886358 20.719425075416808 25.635060715978682 H 0.0 **** 0.06
14606 C 60.99058555402608 97.8572031017261 70.13765810774186 C 0.0 **** -0.24
14607 H 60.24851838326343 98.20535807506361 70.8565308461865 H 0.0 **** 0.06
14608 H 61.65784613815782 97.14330963277628 70.62218372081557 H 0.0 **** 0.06
14609 H 61.56887190212285 98.70522385741768 69.77183272492701 H 0.0 **** 0.06
14610 H 60.486387989431094 97.37365253408785 69.30102126146134 H 0.0 **** 0.06
14611 C 72.41896998046465 99.9888637268362 8.346698590552108 C 0.0 **** -0.24
14612 H 71.49739810978721 99.66495646490836 8.830649977576758 H 0.0 **** 0.06
14613 H 72.30187687651795 101.01339435583856 7.99324313245056 H 0.0 **** 0.06
14614 H 72.63379738664815 99.33503613317748 7.500929551994334 H 0.0 **** 0.06
14615 H 73.24129030480879 99.94200568019858 9.060330244519296 H 0.0 **** 0.06
14616 C 45.15182776397074 65.56132863088743 25.5329420242793 C 0.0 **** -0.24
14617 H 45.57950366602725 66.5294102798012 25.273737952275 H 0.0 **** 0.06
14618 H 45.93644064737907 64.80347560902777 25.52661095877272 H 0.0 **** 0.06
14619 H 44.384403752331025 65.29633728255448 24.80546312981472 H 0.0 **** 0.06
14620 H 44.70817643376316 65.61489561638143 26.527404522626867 H 0.0 **** 0.06
14621 C 108.2033682904013 87.99149299131948 100.10592043600533 C 0.0 **** -0.24
14622 H 108.93949879550766 87.59463640401832 100.80512090218852 H 0.0 **** 0.06
14623 H 107.52540682736911 88.66251108979749 100.63437912004214 H 0.0 **** 0.06
14624 H 107.63489362496375 87.16932727193482 99.6713313976984 H 0.0 **** 0.06
14625 H 108.71326444331469 88.53985395626285 99.31415614655583 H 0.0 **** 0.06
14626 C 54.80418706889769 34.03785330270246 26.016053809220324 C 0.0 **** -0.24
14627 H 55.65641925289152 34.71748567384188 25.98081498213243 H 0.0 **** 0.06
14628 H 54.31522655008894 34.018367654808316 25.041717361171777 H 0.0 **** 0.06
14629 H 54.09659109102696 34.38184731984944 26.770701823858758 H 0.0 **** 0.06
14630 H 55.14904498093035 33.03585458115148 26.270624262582515 H 0.0 **** 0.06
14631 C 93.38926880604326 75.49204219050483 2.9430700371694964 C 0.0 **** -0.24
14632 H 94.33306240167923 75.72332330828247 3.436807054687506 H 0.0 **** 0.06
14633 H 93.01141870378729 74.5370592802003 3.309634566211196 H 0.0 **** 0.06
14634 H 93.54776080980483 75.43066263462207 1.8665509380885759 H 0.0 **** 0.06
14635 H 92.66483330890158 76.2771235389147 3.1592875896908037 H 0.0 **** 0.06
14636 C 99.82579411440156 1.0036199845797285 96.09798094325538 C 0.0 **** -0.24
14637 H 99.44999757201344 1.7775809075644418 95.42888454313129 H 0.0 **** 0.06
14638 H 99.96816797205497 1.4237345126032608 97.09453105394664 H 0.0 **** 0.06
14639 H 100.77732067222479 0.630229606502752 95.72150079535066 H 0.0 **** 0.06
14640 H 99.10715948868295 0.18602968358433714 96.14663153896231 H 0.0 **** 0.06
14641 C 98.37081062097155 94.37450456853833 14.180789891427903 C 0.0 **** -0.24
14642 H 98.7776929225692 94.46862302620423 13.173788360529336 H 0.0 **** 0.06
14643 H 97.33788886177211 94.03150637660451 14.12358482754166 H 0.0 **** 0.06
14644 H 98.40526811662068 95.34373083424293 14.677735209439646 H 0.0 **** 0.06
14645 H 98.96253339328095 93.65495073237076 14.745161130413507 H 0.0 **** 0.06
14646 C 100.61386871010241 7.080356555930905 57.34584176762817 C 0.0 **** -0.24
14647 H 100.52599838866388 7.522726925372979 56.35393261294196 H 0.0 **** 0.06
14648 H 101.41993256804096 7.571235938037091 57.89268007647405 H 0.0 **** 0.06
14649 H 100.8344906804929 6.017184116177816 57.25013979578543 H 0.0 **** 0.06
14650 H 99.6758749948146 7.210057610998433 57.88548513808426 H 0.0 **** 0.06
14651 C 65.60401303196454 23.688447250208213 50.424156847896015 C 0.0 **** -0.24
14652 H 66.50348502747579 24.26398472400865 50.63823904519491 H 0.0 **** 0.06
14653 H 64.72645791812954 24.317312023421977 50.574115745573465 H 0.0 **** 0.06
14654 H 65.5543292069147 22.828967593732955 51.09336447151469 H 0.0 **** 0.06
14655 H 65.63123447668198 23.342729910724415 49.39064192976477 H 0.0 **** 0.06
14656 C 6.540862897674302 61.77887572730317 27.31231512988694 C 0.0 **** -0.24
14657 H 6.826813290794632 62.823593904083666 27.18879234525309 H 0.0 **** 0.06
14658 H 5.514931717984595 61.64110270238126 26.970200546443117 H 0.0 **** 0.06
14659 H 6.611970261251344 61.50597137828015 28.366108573558122 H 0.0 **** 0.06
14660 H 7.207935289685807 61.1475054047266 26.727096043052804 H 0.0 **** 0.06
14661 C 14.290767457852183 83.67503670570068 9.870936222807302 C 0.0 **** -0.24
14662 H 14.626767807279595 84.71018238482336 9.926566331978648 H 0.0 **** 0.06
14663 H 13.91237783983696 83.36312615064998 10.8450382334874 H 0.0 **** 0.06
14664 H 15.127215553771538 83.0363497225728 9.584485248179647 H 0.0 **** 0.06
14665 H 13.497538985473714 83.58971479523865 9.128498822278175 H 0.0 **** 0.06
14666 C 80.94171687787895 26.137373678433015 16.8068248052179 C 0.0 **** -0.24
14667 H 81.45066105623286 27.09329072182119 16.67963976928212 H 0.0 **** 0.06
14668 H 81.33800685386211 25.63036320481254 17.687415669784798 H 0.0 **** 0.06
14669 H 81.1061245255213 25.518498116348432 15.925362011754316 H 0.0 **** 0.06
14670 H 79.87353767014878 26.310361425862823 16.936539699994114 H 0.0 **** 0.06
14671 C 75.46589698289304 110.87638035237747 5.880017669874505 C 0.0 **** -0.24
14672 H 76.12054411967398 110.05715039280568 5.582230884719124 H 0.0 **** 0.06
14673 H 75.0958675238412 111.38591564728776 4.991462988574398 H 0.0 **** 0.06
14674 H 76.02439940449284 111.58013591397663 6.498026381162745 H 0.0 **** 0.06
14675 H 74.62532840605454 110.48067012556605 6.4505345129563665 H 0.0 **** 0.06
14676 C 75.79021759423175 81.68158612262292 44.33373118857787 C 0.0 **** -0.24
14677 H 75.11639921163525 81.36272317155417 43.53934923838381 H 0.0 **** 0.06
14678 H 76.03879697817152 80.82682010303671 44.96414374743989 H 0.0 **** 0.06
14679 H 75.30353697422466 82.44846344115984 44.93694238500484 H 0.0 **** 0.06
14680 H 76.70185550061873 82.08780808218765 43.89611426334869 H 0.0 **** 0.06
14681 C 22.987895078710324 96.4407030061426 49.65593381965644 C 0.0 **** -0.24
14682 H 23.02937999175623 95.79315359249381 48.7794132079344 H 0.0 **** 0.06
14683 H 22.096790533915822 97.0655377994417 49.603869686668304 H 0.0 **** 0.06
14684 H 23.87474551511525 97.07318432903733 49.682620618049754 H 0.0 **** 0.06
14685 H 22.95193077427092 95.82837527690333 50.55691654401738 H 0.0 **** 0.06
14686 C 39.02995934965591 103.11397881217971 17.889989144240587 C 0.0 **** -0.24
14687 H 38.64970888603145 102.10859855842108 17.706763238122903 H 0.0 **** 0.06
14688 H 39.01080301889289 103.68482847845581 16.961440132719076 H 0.0 **** 0.06
14689 H 40.05403022583562 103.05370854964423 18.258734182013768 H 0.0 **** 0.06
14690 H 38.405059250162196 103.60814926017139 18.633758581942004 H 0.0 **** 0.06
14691 C 12.242121790755533 67.39236642585053 66.67892920813357 C 0.0 **** -0.24
14692 H 12.830809843909222 67.40309692954207 67.59628180789883 H 0.0 **** 0.06
14693 H 11.181191286362491 67.35950746917979 66.92917783402274 H 0.0 **** 0.06
14694 H 12.50415071072797 66.51422700206678 66.08922036480709 H 0.0 **** 0.06
14695 H 12.45263706123042 68.29376804481748 66.1029404713541 H 0.0 **** 0.06
14696 C 112.91991611316546 36.219754800337796 101.18016905098122 C 0.0 **** -0.24
14697 H 113.51428419977388 35.583219062927355 100.52407955071804 H 0.0 **** 0.06
14698 H 113.58394422579393 36.84250809657266 101.77982025385239 H 0.0 **** 0.06
14699 H 112.31262531431423 35.596451554144096 101.83767082983252 H 0.0 **** 0.06
14700 H 112.27020704344015 36.8542852040095 100.57838356005533 H 0.0 **** 0.06
14701 C 6.079762871492875 111.66708934953752 31.569486310835487 C 0.0 **** -0.24
14702 H 5.798638623910932 112.23811292696011 30.68523424105028 H 0.0 **** 0.06
14703 H 7.160390456735513 111.71453912823809 31.704412590340752 H 0.0 **** 0.06
14704 H 5.774258624673678 110.62875666824132 31.443213142564602 H 0.0 **** 0.06
14705 H 5.585763780651504 112.08694867471065 32.44508526938593 H 0.0 **** 0.06
14706 C 49.200480599513874 66.9907031329704 96.27641581740373 C 0.0 **** -0.24
14707 H 49.7533942940495 66.6889545491245 95.38660020874688 H 0.0 **** 0.06
14708 H 49.870374242018165 67.50912044121952 96.96189850606567 H 0.0 **** 0.06
14709 H 48.78952351683324 66.10803809776598 96.76642935355672 H 0.0 **** 0.06
14710 H 48.38723966907299 67.65824736268667 95.98944279719059 H 0.0 **** 0.06
14711 C 90.14760155308865 49.32424783686798 16.469202841314164 C 0.0 **** -0.24
14712 H 90.25833569370901 49.84702924543592 15.519323855476308 H 0.0 **** 0.06
14713 H 89.89988036234864 48.27930690075158 16.281194237967867 H 0.0 **** 0.06
14714 H 89.34885678427638 49.78926725587735 17.047685626275218 H 0.0 **** 0.06
14715 H 91.08242679920917 49.38218376239308 17.026724805827417 H 0.0 **** 0.06
14716 C 88.31892365235535 110.49760106596875 102.17502864502244 C 0.0 **** -0.24
14717 H 87.27899085815449 110.57805769947979 101.8576643446774 H 0.0 **** 0.06
14718 H 88.39032165839882 109.80266870259092 103.01213432975247 H 0.0 **** 0.06
14719 H 88.680323402461 111.47852894924648 102.48546112532807 H 0.0 **** 0.06
14720 H 88.92474644562384 110.13265783456546 101.34626952736774 H 0.0 **** 0.06
14721 C 18.961027580830294 32.279639086960344 81.4244625803353 C 0.0 **** -0.24
14722 H 19.22892610248902 32.79808831360117 82.34502182836815 H 0.0 **** 0.06
14723 H 19.75757382298005 32.40848542258897 80.69029545156093 H 0.0 **** 0.06
14724 H 18.033200827109315 32.694934139408645 81.03044720524929 H 0.0 **** 0.06
14725 H 18.825348185908684 31.21810635398336 81.63208706798014 H 0.0 **** 0.06
14726 C 49.69393722432892 11.350447752453206 106.34490312972932 C 0.0 **** -0.24
14727 H 49.94488328500552 12.288729902355819 106.8398720676704 H 0.0 **** 0.06
14728 H 48.71484736476876 11.438650817734008 105.87415817294037 H 0.0 **** 0.06
14729 H 49.67261261470398 10.54622215457156 107.08042472007295 H 0.0 **** 0.06
14730 H 50.44431343154005 11.129636002410635 105.58543996308822 H 0.0 **** 0.06
14731 C 50.68716249976711 67.86792139740623 18.415712573529692 C 0.0 **** -0.24
14732 H 50.905197489995544 67.05866928512165 17.718692971837847 H 0.0 **** 0.06
14733 H 51.229549601522194 68.76269776967669 18.112899200736635 H 0.0 **** 0.06
14734 H 50.99748091118241 67.57613463950193 19.419807495937285 H 0.0 **** 0.06
14735 H 49.61656367612653 68.07186126153066 18.412215896982474 H 0.0 **** 0.06
14736 C 69.41064606112992 93.31055097616292 99.36845943391286 C 0.0 **** -0.24
14737 H 69.60512554811287 94.26523590088948 99.85718121296559 H 0.0 **** 0.06
14738 H 70.33287618350538 92.73231364490312 99.32107074370161 H 0.0 **** 0.06
14739 H 69.04036583286216 93.48856486644951 98.3597101770987 H 0.0 **** 0.06
14740 H 68.66287905501471 92.75798462805949 99.93749414291334 H 0.0 **** 0.06
14741 C 76.23858412891337 84.96149992630544 113.36035355949105 C 0.0 **** -0.24
14742 H 75.93024336672127 85.02964739083066 114.40374105563296 H 0.0 **** 0.06
14743 H 75.77502007188266 84.08753225440994 112.90141620243983 H 0.0 **** 0.06
14744 H 77.32403168431594 84.8674570490407 113.30884446994008 H 0.0 **** 0.06
14745 H 75.92636617332423 85.86108622642074 112.82989621718306 H 0.0 **** 0.06
14746 C 83.18320069831726 83.60646470967785 96.86259640903756 C 0.0 **** -0.24
14747 H 82.37884837223051 83.3100073520771 97.53542543219999 H 0.0 **** 0.06
14748 H 83.22425290549774 82.91644817043121 96.01978714956107 H 0.0 **** 0.06
14749 H 84.1317083384311 83.58387511290596 97.39821237379306 H 0.0 **** 0.06
14750 H 82.99705219356841 84.61655361347806 96.4972120720414 H 0.0 **** 0.06
14751 C 102.48005451042206 91.89915564894886 14.934018294689736 C 0.0 **** -0.24
14752 H 102.7399598689148 91.77604442028303 15.986205293713454 H 0.0 **** 0.06
14753 H 101.51021651337555 91.43866683667522 14.744616894289265 H 0.0 **** 0.06
14754 H 103.23739929247434 91.41941905231403 14.313785878279873 H 0.0 **** 0.06
14755 H 102.43141781438653 92.96133242166161 14.694140136440296 H 0.0 **** 0.06
14756 C 36.76382501711217 74.71621813747248 111.6756427378223 C 0.0 **** -0.24
14757 H 37.04786665759701 75.64600932155648 111.18284232056621 H 0.0 **** 0.06
14758 H 36.041270625680085 74.92993024119336 112.46382094883575 H 0.0 **** 0.06
14759 H 37.64822281800768 74.2496780595059 112.10931015332895 H 0.0 **** 0.06
14760 H 36.317519229906054 74.04023167968462 110.94566530041246 H 0.0 **** 0.06
14761 C 114.48469949001503 77.16785004630503 88.6721689860837 C 0.0 **** -0.24
14762 H 114.82613921690245 76.28276973164134 89.20866622293484 H 0.0 **** 0.06
14763 H 114.55902671708733 76.99280959435595 87.59844001100134 H 0.0 **** 0.06
14764 H 115.10596130696996 78.02072657458825 88.9456153947611 H 0.0 **** 0.06
14765 H 113.44767071910027 77.37509428463437 88.93595431563767 H 0.0 **** 0.06
14766 C 24.442594550937883 79.4270577166922 107.70268722519569 C 0.0 **** -0.24
14767 H 23.688676510459402 78.95275695486211 107.07570808989279 H 0.0 **** 0.06
14768 H 24.023569925909072 80.32360495743713 108.16006561301654 H 0.0 **** 0.06
14769 H 25.304519377605743 79.69729855047677 107.09369792667849 H 0.0 **** 0.06
14770 H 24.75371868025985 78.73279841384685 108.483695796575 H 0.0 **** 0.06
14771 C 68.315096069371 86.71416095638213 73.89376979161091 C 0.0 **** -0.24
14772 H 67.83499306589322 87.440573828717 74.54936646046269 H 0.0 **** 0.06
14773 H 67.83992652984932 85.74125495591778 74.02076348201723 H 0.0 **** 0.06
14774 H 69.37222110601556 86.63809749025339 74.14814855399084 H 0.0 **** 0.06
14775 H 68.21290961573993 87.03628096001601 72.85844323806623 H 0.0 **** 0.06
14776 C 35.93962857217642 66.44789577063034 98.41970342111489 C 0.0 **** -0.24
14777 H 36.29667099345929 66.93745840636586 97.5134436849388 H 0.0 **** 0.06
14778 H 35.51237393800784 67.19291079095501 99.0909922248552 H 0.0 **** 0.06
14779 H 36.77231756587469 65.94786273940929 98.91347716607658 H 0.0 **** 0.06
14780 H 35.17725641451392 65.71364707033172 98.15791698756357 H 0.0 **** 0.06
14781 C 107.38465835876715 82.34806212714287 30.903065156460343 C 0.0 **** -0.24
14782 H 106.30775473302039 82.26957644019797 31.051833859047775 H 0.0 **** 0.06
14783 H 107.74326851698179 81.46222536185141 30.377844636865873 H 0.0 **** 0.06
14784 H 107.87947577194423 82.42274320356228 31.871203058000077 H 0.0 **** 0.06
14785 H 107.60653645228635 83.23630329273843 30.31259820017123 H 0.0 **** 0.06
14786 C 69.32162588243509 84.34452014312357 112.80703792863493 C 0.0 **** -0.24
14787 H 69.27777182653581 84.52449972120587 111.73340639746395 H 0.0 **** 0.06
14788 H 68.89430890853991 85.1969109489942 113.33573794341243 H 0.0 **** 0.06
14789 H 70.36103210913086 84.21232108715624 113.11082202092487 H 0.0 **** 0.06
14790 H 68.75578138181292 83.44466126811788 113.0477525876662 H 0.0 **** 0.06
14791 C 25.33996618066856 75.68720674829501 86.86488829613278 C 0.0 **** -0.24
14792 H 25.151141302238194 76.30714643940155 85.98859811287437 H 0.0 **** 0.06
14793 H 25.89539521627308 74.79787719457335 86.56711475131264 H 0.0 **** 0.06
14794 H 24.390833814880033 75.39172497551218 87.31222691286618 H 0.0 **** 0.06
14795 H 25.92302267205634 76.25423967783632 87.59138978000323 H 0.0 **** 0.06
14796 C 109.55473078794734 46.58425684910222 74.98130639484191 C 0.0 **** -0.24
14797 H 109.3336080048982 46.42838158214627 76.0371738898574 H 0.0 **** 0.06
14798 H 110.38300427373662 47.28691088282979 74.88338312586188 H 0.0 **** 0.06
14799 H 108.67392473747216 46.987556921680465 74.48146310036321 H 0.0 **** 0.06
14800 H 109.82869058288331 45.63342334742768 74.52378671498622 H 0.0 **** 0.06
14801 C 37.920559790904335 28.413452684028158 16.095656827728305 C 0.0 **** -0.24
14802 H 38.95787502297691 28.572089241473464 15.799028833172713 H 0.0 **** 0.06
14803 H 37.38255755247747 27.92039025142293 15.285355252732757 H 0.0 **** 0.06
14804 H 37.45332473559912 29.374136602727845 16.310808709033836 H 0.0 **** 0.06
14805 H 37.89048762559339 27.786620215625902 16.986630031703328 H 0.0 **** 0.06
14806 C 5.686163868382778 83.51519746666338 5.258523774799613 C 0.0 **** -0.24
14807 H 6.215058078700508 84.45177175128129 5.081611131738342 H 0.0 **** 0.06
14808 H 6.3262192188571476 82.67866933080336 4.9770305889215365 H 0.0 **** 0.06
14809 H 4.7753300919580965 83.49360078428833 4.660657622114442 H 0.0 **** 0.06
14810 H 5.429378063457477 83.43768274278821 6.315393737790586 H 0.0 **** 0.06
14811 C 38.844375176854555 82.07894661851033 80.25873028820547 C 0.0 **** -0.24
14812 H 38.0173057359281 82.40650542299137 79.62929650231973 H 0.0 **** 0.06
14813 H 38.922108540099 80.99215226451594 80.21913046094244 H 0.0 **** 0.06
14814 H 38.66308514930378 82.39348758388341 81.2867884069089 H 0.0 **** 0.06
14815 H 39.772471760928745 82.52428932355697 79.90079294266445 H 0.0 **** 0.06
14816 C 55.111579489208225 50.539621723995054 72.90002590226959 C 0.0 **** -0.24
14817 H 54.065577648304014 50.254615285545356 73.0108636500417 H 0.0 **** 0.06
14818 H 55.69742919980487 49.66624339895537 72.61157653896004 H 0.0 **** 0.06
14819 H 55.483691376888316 50.930817506852094 73.84722608704158 H 0.0 **** 0.06
14820 H 55.19851013675492 51.3061523565853 72.12985811775835 H 0.0 **** 0.06
14821 C 42.05300256876396 25.451330933789137 107.18763467467375 C 0.0 **** -0.24
14822 H 42.332197761581654 26.23942117231212 107.88684377397539 H 0.0 **** 0.06
14823 H 42.92595133810329 24.8373948934603 106.96571454381099 H 0.0 **** 0.06
14824 H 41.6792702987141 25.899257064423395 106.26667922136001 H 0.0 **** 0.06
14825 H 41.27452365648696 24.830460301636208 107.63253901494748 H 0.0 **** 0.06
14826 C 59.09637436516883 73.9535341480324 100.69604901846931 C 0.0 **** -0.24
14827 H 59.7119019880717 74.23561435584229 101.54987863840941 H 0.0 **** 0.06
14828 H 58.77314474810001 74.8514332983142 100.16832622511299 H 0.0 **** 0.06
14829 H 58.22247020972742 73.40264044592934 101.04462073832043 H 0.0 **** 0.06
14830 H 59.67625381033892 73.32454053422968 100.02126952349008 H 0.0 **** 0.06
14831 C 6.136078915466669 49.11776929260073 41.72334084242311 C 0.0 **** -0.24
14832 H 5.740186410836998 48.71844465395597 42.65671240317937 H 0.0 **** 0.06
14833 H 5.313266163215729 49.32164178119531 41.03715150022896 H 0.0 **** 0.06
14834 H 6.811519550085649 48.38820942526601 41.27476086724124 H 0.0 **** 0.06
14835 H 6.680205343015885 50.04004356766359 41.92386534628247 H 0.0 **** 0.06
14836 C 72.65815662797091 9.842026062020906 23.89733377064485 C 0.0 **** -0.24
14837 H 73.20293019748492 10.693338577377347 23.489443710764107 H 0.0 **** 0.06
14838 H 73.07702632627085 9.574226480646843 24.86821183155331 H 0.0 **** 0.06
14839 H 72.7458719653589 8.99463062317777 23.21754811958988 H 0.0 **** 0.06
14840 H 71.60801954514277 10.107028470785835 24.015935316319883 H 0.0 **** 0.06
14841 C 109.00734869518453 103.24488099444312 2.249944201824718 C 0.0 **** -0.24
14842 H 109.02684425111966 103.946106775506 1.4152443022871637 H 0.0 **** 0.06
14843 H 108.02187555196105 103.2610667724772 2.714708895203657 H 0.0 **** 0.06
14844 H 109.76055873651168 103.532893417786 2.9833820231478256 H 0.0 **** 0.06
14845 H 109.22186230763316 102.24040751387759 1.8854178277440639 H 0.0 **** 0.06
14846 C 88.37674404133816 89.48896687671383 61.36395679113821 C 0.0 **** -0.24
14847 H 89.11602737266361 90.03719005125319 60.78096193975098 H 0.0 **** 0.06
14848 H 87.97919233441655 90.1351899201466 62.147153462724646 H 0.0 **** 0.06
14849 H 88.84578573839869 88.61527999022994 61.81617316562857 H 0.0 **** 0.06
14850 H 87.56543588062544 89.16737592247276 60.71138890530803 H 0.0 **** 0.06
14851 C 109.87328202600735 23.23151083750122 24.13159631256785 C 0.0 **** -0.24
14852 H 110.21300939395812 23.521854337538628 23.137735917059654 H 0.0 **** 0.06
14853 H 109.45831311898208 24.10133404046414 24.641676703729992 H 0.0 **** 0.06
14854 H 110.71564013009541 22.841619851535086 24.70416899151123 H 0.0 **** 0.06
14855 H 109.10737534778255 22.46137501574711 24.042084807675284 H 0.0 **** 0.06
14856 C 75.72574181661207 57.152723371455565 105.73911139065132 C 0.0 **** -0.24
14857 H 76.37062226815445 57.019157449226086 104.87032952853303 H 0.0 **** 0.06
14858 H 75.5370077292475 58.214837936665546 105.89132367351402 H 0.0 **** 0.06
14859 H 76.21600997670191 56.739648988103085 106.62039409986784 H 0.0 **** 0.06
14860 H 74.78089561520588 56.634189734733695 105.57292131408707 H 0.0 **** 0.06
14861 C 13.43467433583615 82.78058813734538 27.949995190098562 C 0.0 **** -0.24
14862 H 13.466787568931124 83.8704071307643 27.945107103595006 H 0.0 **** 0.06
14863 H 12.421680278501071 82.4482053460132 28.17890199842728 H 0.0 **** 0.06
14864 H 14.121522583017224 82.40015765778708 28.7059321450122 H 0.0 **** 0.06
14865 H 13.728457020163887 82.4045231256087 26.970269020857728 H 0.0 **** 0.06
14866 C 105.4946184542238 83.13808229694712 85.61918166209668 C 0.0 **** -0.24
14867 H 105.55266214658575 82.36174735597186 86.38238777363654 H 0.0 **** 0.06
14868 H 104.80115203397436 82.82609205396489 84.83696041450432 H 0.0 **** 0.06
14869 H 106.48241484592506 83.29707934534335 85.18717268563267 H 0.0 **** 0.06
14870 H 105.1418542337764 84.06462839269551 86.0698768750944 H 0.0 **** 0.06
14871 C 36.50657356997016 95.57199500654775 61.5440776938795 C 0.0 **** -0.24
14872 H 35.60994894290366 95.88491615291667 61.00839193813266 H 0.0 **** 0.06
14873 H 36.24856384892621 94.78790765808532 62.25657163738572 H 0.0 **** 0.06
14874 H 36.92717780465205 96.42481687656209 62.07777380918128 H 0.0 **** 0.06
14875 H 37.239188545967636 95.19116743533993 60.83301498910646 H 0.0 **** 0.06
14876 C 77.80571892246888 70.1770043976918 32.452169381440726 C 0.0 **** -0.24
14877 H 76.95488927059068 70.85544347900594 32.39295073967046 H 0.0 **** 0.06
14878 H 77.93607080003846 69.67252081303127 31.49429396827182 H 0.0 **** 0.06
14879 H 77.62613207501505 69.43634072833896 33.231808066699514 H 0.0 **** 0.06
14880 H 78.7063181527369 70.74358626995559 32.690460393872385 H 0.0 **** 0.06
14881 C 38.00784406127072 57.857200923121894 78.19939346841517 C 0.0 **** -0.24
14882 H 38.681697817841325 58.667908001385214 78.47457821068377 H 0.0 **** 0.06
14883 H 37.816176850735275 57.23239819800804 79.07222955717566 H 0.0 **** 0.06
14884 H 38.4660821600512 57.25529711851918 77.41434172750047 H 0.0 **** 0.06
14885 H 37.06741941645507 58.27320037457514 77.83642437830088 H 0.0 **** 0.06
14886 C 67.67342873759452 34.67132661998261 95.6323622000927 C 0.0 **** -0.24
14887 H 67.05427206084437 33.91012394681309 96.10695786984587 H 0.0 **** 0.06
14888 H 68.2132416357208 35.22887777054606 96.39769304188496 H 0.0 **** 0.06
14889 H 67.04007454917394 35.35250929951684 95.06406810069092 H 0.0 **** 0.06
14890 H 68.38650660382302 34.19210705236631 94.96065825792192 H 0.0 **** 0.06
14891 C 113.7829093094439 22.738511750876427 60.03774053523347 C 0.0 **** -0.24
14892 H 112.81723273291291 22.348716519583512 60.36013315104768 H 0.0 **** 0.06
14893 H 114.58046637889666 22.136735784528547 60.47298407251452 H 0.0 **** 0.06
14894 H 113.88574895128106 23.772446405514586 60.36617265281342 H 0.0 **** 0.06
14895 H 113.84689722274962 22.694833389148055 58.950406495995 H 0.0 **** 0.06
14896 C 9.546437459731038 84.96216117496661 106.53748388615554 C 0.0 **** -0.24
14897 H 9.617189668530582 85.28522624386132 107.57573655159746 H 0.0 **** 0.06
14898 H 10.536623903076332 84.68248351557956 106.17596370505818 H 0.0 **** 0.06
14899 H 9.154574466050885 85.77775633297696 105.93000016728625 H 0.0 **** 0.06
14900 H 8.87786926468645 84.10403835011317 106.46829326094561 H 0.0 **** 0.06
14901 C 0.5838385835379825 77.37176218709601 73.96361377317078 C 0.0 **** -0.24
14902 H -0.4984643606033785 77.30367639591816 73.849801359449 H 0.0 **** 0.06
14903 H 0.8422504296376587 78.33052560694739 74.4128481889972 H 0.0 **** 0.06
14904 H 1.0579378438697802 77.28831016528636 72.98614042132488 H 0.0 **** 0.06
14905 H 0.9321053919893245 76.56346383657069 74.60689954225245 H 0.0 **** 0.06
14906 C 48.56096878727982 19.987520619194797 17.233629007564744 C 0.0 **** -0.24
14907 H 47.57201418390912 19.92221237231604 16.7790344323366 H 0.0 **** 0.06
14908 H 49.212368867644386 19.232678152588562 16.792639929217756 H 0.0 **** 0.06
14909 H 48.47904803306491 19.816007796025332 18.306654572052537 H 0.0 **** 0.06
14910 H 48.978411070008804 20.97844156848852 17.053881437087227 H 0.0 **** 0.06
14911 C 86.91942665280263 91.87061667150628 90.19283982804501 C 0.0 **** -0.24
14912 H 87.20300087905912 91.60918559275997 89.1732874695835 H 0.0 **** 0.06
14913 H 86.72418888762608 92.94209923058578 90.25219457921526 H 0.0 **** 0.06
14914 H 87.73061215817957 91.61071476422079 90.87301894780319 H 0.0 **** 0.06
14915 H 86.01997413472249 91.32140442989069 90.47180157510223 H 0.0 **** 0.06
14916 C 67.51250314485642 70.9194780236373 109.77482363616701 C 0.0 **** -0.24
14917 H 67.02430063842392 70.38929721539512 110.59345130592015 H 0.0 **** 0.06
14918 H 67.10598649372442 70.57293155627737 108.82486769332621 H 0.0 **** 0.06
14919 H 68.58462123718122 70.72473576751753 109.80508605301617 H 0.0 **** 0.06
14920 H 67.33321436516901 71.99002006379445 109.87824932590968 H 0.0 **** 0.06
14921 C 51.73640735586241 70.51605850443202 110.98060944511906 C 0.0 **** -0.24
14922 H 51.52248621479873 69.4880178307801 110.68837038385192 H 0.0 **** 0.06
14923 H 50.89401511219023 71.152680866883 110.71260057927776 H 0.0 **** 0.06
14924 H 52.6322819571393 70.86077543322449 110.4645043454579 H 0.0 **** 0.06
14925 H 51.898139624438045 70.56015160042551 112.05768652298417 H 0.0 **** 0.06
14926 C 21.226104731498936 20.3367131152678 109.21670052608394 C 0.0 **** -0.24
14927 H 21.247562970421143 19.28015843390446 109.48079371616922 H 0.0 **** 0.06
14928 H 21.47015118065309 20.935598559764145 110.09414802371037 H 0.0 **** 0.06
14929 H 20.230701369295787 20.60152476177589 108.86037976889949 H 0.0 **** 0.06
14930 H 21.955968829269068 20.529158156947517 108.4301282931547 H 0.0 **** 0.06
14931 C 64.87580979444006 54.125515769060925 92.04994413334063 C 0.0 **** -0.24
14932 H 65.39717092229044 53.68167072166644 92.8983259629683 H 0.0 **** 0.06
14933 H 64.06243712699383 53.46868497805721 91.73973157027586 H 0.0 **** 0.06
14934 H 65.57342681890809 54.2566222228795 91.22303113128334 H 0.0 **** 0.06
14935 H 64.46951918094877 55.094682247905354 92.33985764636407 H 0.0 **** 0.06
14936 C 80.48326611283238 5.841843537640557 108.75168677419157 C 0.0 **** -0.24
14937 H 79.57826974419982 5.876449017356862 108.14565249047638 H 0.0 **** 0.06
14938 H 81.29371319872791 5.4020648165046055 108.16997397484033 H 0.0 **** 0.06
14939 H 80.30201018543283 5.234615409601986 109.63982300929968 H 0.0 **** 0.06
14940 H 80.75849580670956 6.851823160865592 109.05324813357964 H 0.0 **** 0.06
14941 C 37.55853511249616 49.08225934682321 105.10751704107938 C 0.0 **** -0.24
14942 H 36.96083438094696 48.20736036565921 105.36486351757478 H 0.0 **** 0.06
14943 H 38.19747012852713 49.34612948439218 105.94994989833667 H 0.0 **** 0.06
14944 H 36.89868408043094 49.91786309541237 104.87531989707632 H 0.0 **** 0.06
14945 H 38.17732899280951 48.85558904902217 104.23867854955363 H 0.0 **** 0.06
14946 C 95.52955206296662 44.562506959544095 17.94874873129652 C 0.0 **** -0.24
14947 H 95.33318995862732 44.8371652777692 16.911912033052772 H 0.0 **** 0.06
14948 H 96.43702769243416 43.959663798849675 17.99935247322253 H 0.0 **** 0.06
14949 H 94.6886983104833 43.98709651855401 18.336852303367777 H 0.0 **** 0.06
14950 H 95.65869542498574 45.464965190498305 18.545715775679753 H 0.0 **** 0.06
14951 C 60.664328315397654 104.03319598454283 69.89291080137363 C 0.0 **** -0.24
14952 H 61.218518302554486 104.50643845240944 69.08242972754995 H 0.0 **** 0.06
14953 H 60.53145529301747 104.74639233110443 70.70656754650342 H 0.0 **** 0.06
14954 H 61.21824082942402 103.16689170084584 70.25478146544205 H 0.0 **** 0.06
14955 H 59.688716330016234 103.71259634719416 69.52658482609816 H 0.0 **** 0.06
14956 C 11.426205128337443 28.722063892934706 37.87907134658906 C 0.0 **** -0.24
14957 H 12.504203471997329 28.605955777858533 37.99144143025069 H 0.0 **** 0.06
14958 H 11.004163555847313 29.104796639406814 38.8094617114067 H 0.0 **** 0.06
14959 H 10.979726512409542 27.755141168209967 37.64742757933635 H 0.0 **** 0.06
14960 H 11.217900057538515 29.42190038043018 37.070677036516884 H 0.0 **** 0.06
14961 C 21.880524085860003 115.46773313681632 91.12730161347795 C 0.0 **** -0.24
14962 H 22.672806715790742 116.01031863164158 91.6420119287902 H 0.0 **** 0.06
14963 H 20.952114888395528 115.55972285362124 91.68990870698867 H 0.0 **** 0.06
14964 H 22.154615348913836 114.4151626914021 91.0473950070576 H 0.0 **** 0.06
14965 H 21.744660833149453 115.88401065756221 90.12861256548244 H 0.0 **** 0.06
14966 C 33.70535233955462 65.5539857438228 79.47907501564839 C 0.0 **** -0.24
14967 H 32.67866786163722 65.21623194528047 79.61944201605047 H 0.0 **** 0.06
14968 H 34.290308215434436 65.31889970202548 80.3685887945332 H 0.0 **** 0.06
14969 H 33.71361788027809 66.63096949104121 79.31185589869528 H 0.0 **** 0.06
14970 H 34.137867068465965 65.0496598953082 78.61538006893039 H 0.0 **** 0.06
14971 C 54.73386974087618 69.4320910251922 4.976124833488479 C 0.0 **** -0.24
14972 H 54.31839458332122 70.42814282427994 5.128419782364833 H 0.0 **** 0.06
14973 H 55.65910132328559 69.33278714923708 5.54404897733629 H 0.0 **** 0.06
14974 H 54.93935270219233 69.28218735442952 3.916472925933544 H 0.0 **** 0.06
14975 H 54.01664005557026 68.68450418578054 5.316777326559585 H 0.0 **** 0.06
14976 C 89.65680547922716 113.85578188912957 72.45399126535912 C 0.0 **** -0.24
14977 H 88.71739545529812 114.2963054357048 72.11943725273068 H 0.0 **** 0.06
14978 H 90.49130886630809 114.42986729059909 72.05091978051632 H 0.0 **** 0.06
14979 H 89.7205542019455 112.82573987221282 72.10189731473156 H 0.0 **** 0.06
14980 H 89.69780995523882 113.87039880216858 73.54315357499968 H 0.0 **** 0.06
14981 C 47.52219489672468 92.59653847093222 84.2293905338639 C 0.0 **** -0.24
14982 H 47.473522043275764 91.55559476783273 83.9083223690233 H 0.0 **** 0.06
14983 H 48.56377426319999 92.87978125430888 84.38505547470844 H 0.0 **** 0.06
14984 H 46.96952831747381 92.71607729212688 85.16057666166373 H 0.0 **** 0.06
14985 H 47.08336211806453 93.234242511051 83.46165559569909 H 0.0 **** 0.06
14986 C 35.98060705777573 17.620796432069795 110.54720523583474 C 0.0 **** -0.24
14987 H 35.84553190309691 18.29475018397804 111.39394821492323 H 0.0 **** 0.06
14988 H 35.00641189813069 17.29677668170325 110.18274196357088 H 0.0 **** 0.06
14989 H 36.557897956282744 16.751684949974987 110.86410909832071 H 0.0 **** 0.06
14990 H 36.513298181162426 18.14130953726169 109.75079838181011 H 0.0 **** 0.06
14991 C 20.170139131654324 28.503977612883745 37.005575812121094 C 0.0 **** -0.24
14992 H 20.335242342297676 29.313588609194568 37.71652906179776 H 0.0 **** 0.06
14993 H 19.099982286021245 28.324565730828084 36.901776669963056 H 0.0 **** 0.06
14994 H 20.657534408636906 27.598666981956512 37.366818159024774 H 0.0 **** 0.06
14995 H 20.588330374953173 28.780711248014768 36.036887920644745 H 0.0 **** 0.06
14996 C 102.83608699796568 85.41784474226654 23.839422180348237 C 0.0 **** -0.24
14997 H 101.80426384419033 85.76575522645624 23.805825215159558 H 0.0 **** 0.06
14998 H 103.46314984647373 86.08288512608834 23.244369989626563 H 0.0 **** 0.06
14999 H 102.89248130075084 84.40688942188365 23.43544619804578 H 0.0 **** 0.06
15000 H 103.18539150024569 85.41550605511168 24.872086437065633 H 0.0 **** 0.06
15001 C 74.41900002986192 96.38190289304418 33.68697079601844 C 0.0 **** -0.24
15002 H 74.73524590683236 95.373804398349 33.416520062615035 H 0.0 **** 0.06
15003 H 73.70400564295682 96.3298784021377 34.50763515737091 H 0.0 **** 0.06
15004 H 73.95023925534096 96.85804598567557 32.82500112032017 H 0.0 **** 0.06
15005 H 75.28634369929617 96.96443645126232 33.996103639770936 H 0.0 **** 0.06
15006 C 31.011263483484527 2.2281292961542363 20.302065562065074 C 0.0 **** -0.24
15007 H 31.50491610067658 2.833299221043063 21.062172124311214 H 0.0 **** 0.06
15008 H 30.154907232409528 2.773737934020545 19.902662408273347 H 0.0 **** 0.06
15009 H 30.669845917417263 1.2933079004874344 20.747104415938264 H 0.0 **** 0.06
15010 H 31.71260831063708 2.0126298936969533 19.49603579229629 H 0.0 **** 0.06
15011 C 24.34884393325253 10.63107002354343 74.31828453092845 C 0.0 **** -0.24
15012 H 23.3403744603337 10.850364711862795 74.66935821303701 H 0.0 **** 0.06
15013 H 24.61874487768599 9.614296325240161 74.60286713008816 H 0.0 **** 0.06
15014 H 25.050065562629477 11.33295114511104 74.7681340533585 H 0.0 **** 0.06
15015 H 24.38398761592117 10.726944695471943 73.23304237949554 H 0.0 **** 0.06
15016 C 16.945284915458814 112.89459044770682 48.89628467364729 C 0.0 **** -0.24
15017 H 16.676692189185587 113.61104795887823 49.671902540638484 H 0.0 **** 0.06
15018 H 17.772348244876383 113.29079960337319 48.30625656608942 H 0.0 **** 0.06
15019 H 16.08616199676277 112.72155379849796 48.24764400223994 H 0.0 **** 0.06
15020 H 17.246401228268496 111.95412174164538 49.35829567121036 H 0.0 **** 0.06
15021 C 16.238220348216508 2.4061383874111044 74.62265876140776 C 0.0 **** -0.24
15022 H 16.116501239973857 1.3457524026291594 74.84390428272565 H 0.0 **** 0.06
15023 H 15.62609470749382 2.6698432119550546 73.7600107819278 H 0.0 **** 0.06
15024 H 17.285244246590313 2.612253796631933 74.40134015181309 H 0.0 **** 0.06
15025 H 15.92602492285111 2.99462652238347 75.48453357875906 H 0.0 **** 0.06
15026 C 100.37062926777067 57.074060961988934 101.9303289548818 C 0.0 **** -0.24
15027 H 100.94733269879441 57.58280735149843 102.70282349924204 H 0.0 **** 0.06
15028 H 101.03983193703469 56.748499472534746 101.13298515064675 H 0.0 **** 0.06
15029 H 99.62624137689008 57.757971860617204 101.52362752077522 H 0.0 **** 0.06
15030 H 99.87151312417899 56.20714261329779 102.36232566735151 H 0.0 **** 0.06
15031 C 31.79487636471964 43.10123516806985 49.47383598004399 C 0.0 **** -0.24
15032 H 32.44221832666477 42.24033924593158 49.31037625406242 H 0.0 **** 0.06
15033 H 32.40669874896818 43.99005045288101 49.633852908380504 H 0.0 **** 0.06
15034 H 31.171702145726414 42.926022420456945 50.35058789441217 H 0.0 **** 0.06
15035 H 31.160737292591307 43.24947885809263 48.59970783970692 H 0.0 **** 0.06
15036 C 94.7548073821003 17.902549484605174 55.942033097999115 C 0.0 **** -0.24
15037 H 95.21980489655363 17.384756909253383 56.780094333007014 H 0.0 **** 0.06
15038 H 95.40356578956681 17.83328604581817 55.06795544151851 H 0.0 **** 0.06
15039 H 94.60275356087774 18.950416045602367 56.20013548182601 H 0.0 **** 0.06
15040 H 93.79323515929622 17.439672179737897 55.718638707489276 H 0.0 **** 0.06
15041 C 50.82965645575197 102.42174148087753 13.728720971302494 C 0.0 **** -0.24
15042 H 51.03758653477638 102.07138438715586 14.739801854686164 H 0.0 **** 0.06
15043 H 50.643031365802244 101.56649320806136 13.079725604591857 H 0.0 **** 0.06
15044 H 51.68777142030589 102.9814577669132 13.355079423530213 H 0.0 **** 0.06
15045 H 49.95174531301461 103.06838435209153 13.74174518957264 H 0.0 **** 0.06
15046 C 11.21421965164157 50.04426416925597 70.45288328830483 C 0.0 **** -0.24
15047 H 12.142742422628857 50.58542256055601 70.27028365123037 H 0.0 **** 0.06
15048 H 11.120726705533684 49.23068041299703 69.73268736693132 H 0.0 **** 0.06
15049 H 10.36930914363839 50.7237711866743 70.34404871802356 H 0.0 **** 0.06
15050 H 11.224197361807143 49.636024536217064 71.46322895710205 H 0.0 **** 0.06
15051 C 81.88273334508987 88.87689163653282 20.591378380396293 C 0.0 **** -0.24
15052 H 82.94883298354462 88.65075695918122 20.61889643244342 H 0.0 **** 0.06
15053 H 81.65488788681076 89.64306652927847 21.332897816424406 H 0.0 **** 0.06
15054 H 81.31408845530017 87.97418563493753 20.8159389512345 H 0.0 **** 0.06
15055 H 81.61375305462548 89.23924026053481 19.59900664972662 H 0.0 **** 0.06
15056 C 103.94209101639838 110.24299331906181 70.77102010397552 C 0.0 **** -0.24
15057 H 103.43839649463892 109.31511727581122 70.49828674542907 H 0.0 **** 0.06
15058 H 104.86551407826077 110.33676024779311 70.19875162092488 H 0.0 **** 0.06
15059 H 104.17319613317974 110.2309676612486 71.83650562856641 H 0.0 **** 0.06
15060 H 103.29021089211959 111.08852113011591 70.54980387902228 H 0.0 **** 0.06
15061 C 7.743447657793922 40.437269054744405 104.4256362466698 C 0.0 **** -0.24
15062 H 7.863100457179684 39.649789814400464 103.68177322904234 H 0.0 **** 0.06
15063 H 6.691290944884898 40.713804618251004 104.49630385100619 H 0.0 **** 0.06
15064 H 8.329286065471763 41.30756182089354 104.13068305105307 H 0.0 **** 0.06
15065 H 8.090385054592957 40.077581463939254 105.39468571567232 H 0.0 **** 0.06
15066 C 35.919258861755935 8.544400149911652 4.3406506088473265 C 0.0 **** -0.24
15067 H 36.99146421018219 8.603861488277403 4.528447341135335 H 0.0 **** 0.06
15068 H 35.47747445193501 9.534899228344358 4.446705459162056 H 0.0 **** 0.06
15069 H 35.4623514712744 7.863842778187475 5.05984801916305 H 0.0 **** 0.06
15070 H 35.747726268221115 8.17434428474472 3.3297580381052043 H 0.0 **** 0.06
15071 C 112.84254135861761 109.3203048201251 90.61029428707104 C 0.0 **** -0.24
15072 H 112.40792928955761 109.89371158042236 89.79188512582652 H 0.0 **** 0.06
15073 H 112.08028160571098 108.67480694319362 91.04716742704983 H 0.0 **** 0.06
15074 H 113.22043964247797 110.00345612020668 91.37218328751698 H 0.0 **** 0.06
15075 H 113.66333319025529 108.71021090620224 90.23126813606808 H 0.0 **** 0.06
15076 C 24.270033208453185 54.33660967698478 59.60912966184158 C 0.0 **** -0.24
15077 H 25.300221291062428 54.58326379315551 59.35032882630114 H 0.0 **** 0.06
15078 H 23.76055735980745 55.231964450466506 59.96420387654737 H 0.0 **** 0.06
15079 H 24.264524363062947 53.579515779203376 60.393203657391865 H 0.0 **** 0.06
15080 H 23.757297546382176 53.95033597886734 58.72775041746159 H 0.0 **** 0.06
15081 C 115.19686900048015 77.04169540776493 110.40208003424692 C 0.0 **** -0.24
15082 H 114.28609030475057 76.67501566993246 109.92781667217365 H 0.0 **** 0.06
15083 H 115.73397976169831 76.20551862463472 110.8498913539314 H 0.0 **** 0.06
15084 H 114.9382304240255 77.76376176089862 111.17607601577062 H 0.0 **** 0.06
15085 H 115.82749874525096 77.52075470992581 109.65409689090195 H 0.0 **** 0.06
15086 C 74.61940119544363 74.53893925475984 41.22984097362844 C 0.0 **** -0.24
15087 H 75.15384844358596 73.58988355359948 41.192251755289156 H 0.0 **** 0.06
15088 H 73.61786093659498 74.4085139242063 40.817594679059006 H 0.0 **** 0.06
15089 H 75.15971447308056 75.28355714421741 40.64575340864601 H 0.0 **** 0.06
15090 H 74.54526172893353 74.87308143200502 42.26456116839296 H 0.0 **** 0.06
15091 C 101.70884866655331 17.64473524023515 73.24078396736022 C 0.0 **** -0.24
15092 H 102.12318731429264 18.41836416698152 73.88810026178629 H 0.0 **** 0.06
15093 H 100.69353023502943 17.41021482164487 73.55987828992087 H 0.0 **** 0.06
15094 H 102.32720442874032 16.74872218446086 73.30578692716261 H 0.0 **** 0.06
15095 H 101.69356033841137 18.001609507163494 72.21152476083334 H 0.0 **** 0.06
15096 C 15.415127988768973 107.23787346795439 95.76502037590916 C 0.0 **** -0.24
15097 H 15.865652842125598 107.49029893644945 96.72466002957752 H 0.0 **** 0.06
15098 H 16.117014093187777 106.64315505093913 95.18000543424505 H 0.0 **** 0.06
15099 H 15.175204558461076 108.15307206531565 95.22394383929418 H 0.0 **** 0.06
15100 H 14.503352729183746 106.66427642409604 95.93135093941362 H 0.0 **** 0.06
15101 C 19.56425579825938 68.14784624133124 9.68605906110281 C 0.0 **** -0.24
15102 H 19.56559806011734 67.11456232866277 10.032371175029112 H 0.0 **** 0.06
15103 H 18.57441242931418 68.57960998558097 9.83552729756886 H 0.0 **** 0.06
15104 H 19.81856490552721 68.17762698544068 8.62676612980556 H 0.0 **** 0.06
15105 H 20.299067788512758 68.72094767524565 10.252171844587508 H 0.0 **** 0.06
15106 C 10.678715006757486 100.38747617374588 15.46658829441273 C 0.0 **** -0.24
15107 H 9.732836299366753 100.13394568711306 14.988756450515837 H 0.0 **** 0.06
15108 H 11.132140008827154 101.23298885148182 14.947062776625927 H 0.0 **** 0.06
15109 H 11.349759228306525 99.52993476575364 15.421323307325991 H 0.0 **** 0.06
15110 H 10.499595767436247 100.65468686607574 16.50779877737193 H 0.0 **** 0.06
15111 C 72.52676058625246 83.47710275832655 12.333125817119367 C 0.0 **** -0.24
15112 H 72.81364585822291 82.42579087875032 12.301554429193402 H 0.0 **** 0.06
15113 H 71.70167063089343 83.60735417002967 13.03263538084343 H 0.0 **** 0.06
15114 H 72.21560984661488 83.7987997469323 11.339127410590322 H 0.0 **** 0.06
15115 H 73.37839473361316 84.07579421543002 12.658589270847074 H 0.0 **** 0.06
15116 C 60.259976266484315 43.33511238491094 18.40617432699554 C 0.0 **** -0.24
15117 H 61.126123679131254 42.83305542127765 18.837108210324402 H 0.0 **** 0.06
15118 H 59.80404820012855 42.69182420535482 17.654105563708526 H 0.0 **** 0.06
15119 H 60.576091486405886 44.26994976709569 17.942204663707145 H 0.0 **** 0.06
15120 H 59.5346256155394 43.54744853057179 19.192109053717758 H 0.0 **** 0.06
15121 C 38.67626706429934 88.3729693442389 19.4687159830398 C 0.0 **** -0.24
15122 H 38.723838012659655 88.97662500448743 18.562682665783882 H 0.0 **** 0.06
15123 H 38.188417898060095 88.94229429789024 20.26014751160092 H 0.0 **** 0.06
15124 H 39.686693187805474 88.10803997085816 19.781829527844863 H 0.0 **** 0.06
15125 H 38.10818583607764 87.46406423039497 19.27020962665833 H 0.0 **** 0.06
15126 C 101.6041978091776 38.45107572735958 82.25912271517836 C 0.0 **** -0.24
15127 H 101.31272362082447 37.78569947217551 83.07121245025144 H 0.0 **** 0.06
15128 H 100.72420352002209 38.70805545625666 81.66734220858618 H 0.0 **** 0.06
15129 H 102.33502035972535 37.95099082960047 81.62431329832654 H 0.0 **** 0.06
15130 H 102.0418066239717 39.35968339703305 82.67275079097095 H 0.0 **** 0.06
15131 C 6.011239743568694 114.39515480094752 22.950952061605193 C 0.0 **** -0.24
15132 H 5.234166805938571 113.68608782314047 22.664755889674296 H 0.0 **** 0.06
15133 H 5.608332186707628 115.09893612681702 23.680336039862198 H 0.0 **** 0.06
15134 H 6.348742083293871 114.93999671856864 22.068903850030694 H 0.0 **** 0.06
15135 H 6.850704145587372 113.85646973793811 23.390211050470967 H 0.0 **** 0.06
15136 C 43.82536479082793 93.26257865771454 50.13122167944917 C 0.0 **** -0.24
15137 H 44.674004135372854 93.91728907023877 50.33014656472741 H 0.0 **** 0.06
15138 H 42.92949773331961 93.86582261516472 49.97968431273373 H 0.0 **** 0.06
15139 H 43.675012437073164 92.59499221256955 50.98025178522143 H 0.0 **** 0.06
15140 H 44.02283517881992 92.67363991442483 49.235776465155624 H 0.0 **** 0.06
15141 C 70.23569693207668 28.861317987118355 45.0043363348683 C 0.0 **** -0.24
15142 H 70.42115795493413 29.851252802173633 44.586973362141265 H 0.0 **** 0.06
15143 H 69.53972624360665 28.32144648396735 44.36140540761755 H 0.0 **** 0.06
15144 H 69.80647974361926 28.961953217653786 46.001043760009 H 0.0 **** 0.06
15145 H 71.17437287688625 28.311691729124504 45.06660143797819 H 0.0 **** 0.06
15146 C 75.63426509395185 95.70454541120624 10.750934758068524 C 0.0 **** -0.24
15147 H 76.30998190379853 95.01516236422562 10.243392210397662 H 0.0 **** 0.06
15148 H 76.05118956429442 95.971185473227 11.722631045570424 H 0.0 **** 0.06
15149 H 74.66488755712115 95.226336948653 10.88961202158276 H 0.0 **** 0.06
15150 H 75.51296507168769 96.60315693177266 10.147285763300864 H 0.0 **** 0.06
15151 C 104.64826439279976 32.73061046021777 112.1188165328662 C 0.0 **** -0.24
15152 H 104.55415838650862 32.701872757155456 113.2036850382261 H 0.0 **** 0.06
15153 H 103.73536009959673 33.141677126098045 111.68642484501208 H 0.0 **** 0.06
15154 H 104.80734839893046 31.720251744597988 111.74112732530816 H 0.0 **** 0.06
15155 H 105.49619068616371 33.358640213019335 111.84402892291867 H 0.0 **** 0.06
15156 C 64.37034075409497 54.05381159657433 0.838914649069828 C 0.0 **** -0.24
15157 H 64.71641720510229 53.6408368788431 -0.10811411199218668 H 0.0 **** 0.06
15158 H 64.23014686387438 53.24632077125328 1.5586742533484603 H 0.0 **** 0.06
15159 H 63.424365980343794 54.57208810703389 0.6853774204913421 H 0.0 **** 0.06
15160 H 65.11202883322653 54.75621611434191 1.22090720674802 H 0.0 **** 0.06
15161 C 103.65986846668466 111.89628019736193 40.380006491126665 C 0.0 **** -0.24
15162 H 102.73133350201796 112.33170951694669 40.012239417968274 H 0.0 **** 0.06
15163 H 104.18996174855825 112.63122633870225 40.98632890866904 H 0.0 **** 0.06
15164 H 104.28383641350968 111.603195958752 39.53533601178988 H 0.0 **** 0.06
15165 H 103.43445535091941 111.01832486300637 40.98686068597539 H 0.0 **** 0.06
15166 C 103.16171810812347 50.17640195355068 105.5472881281267 C 0.0 **** -0.24
15167 H 103.11115099540416 49.55499380912147 104.65354744776053 H 0.0 **** 0.06
15168 H 104.13003590656288 50.67459842212702 105.5888506542428 H 0.0 **** 0.06
15169 H 103.03593107784712 49.55211352287381 106.43131984350077 H 0.0 **** 0.06
15170 H 102.36866542301186 50.92385773955141 105.5145333656946 H 0.0 **** 0.06
15171 C 66.0273108874699 114.9592222388836 83.13155934977186 C 0.0 **** -0.24
15172 H 64.96997245527092 114.84069710966284 83.37017794909974 H 0.0 **** 0.06
15173 H 66.4403189458361 113.99674889644822 82.8280103123601 H 0.0 **** 0.06
15174 H 66.55932187982795 115.32358158074675 84.01022886328636 H 0.0 **** 0.06
15175 H 66.13749554031405 115.67535977986347 82.31738252253211 H 0.0 **** 0.06
15176 C 100.45919768666198 30.590153661067546 44.79446472226272 C 0.0 **** -0.24
15177 H 99.65399564607912 30.004762113769345 45.23876527742448 H 0.0 **** 0.06
15178 H 100.96717087229604 29.99203186772968 44.03780156746839 H 0.0 **** 0.06
15179 H 101.17011840181914 30.875999248803765 45.56916307886698 H 0.0 **** 0.06
15180 H 100.04436726417526 31.486367603338067 44.33339007389219 H 0.0 **** 0.06
15181 C 80.95889490134033 20.319078136493015 63.417549276590336 C 0.0 **** -0.24
15182 H 81.78463924047236 20.98050928927225 63.68116587793904 H 0.0 **** 0.06
15183 H 81.04854787705136 19.387572238997755 63.975310506092285 H 0.0 **** 0.06
15184 H 80.99036465005622 20.10839819096669 62.34917897793255 H 0.0 **** 0.06
15185 H 80.01365277978863 20.802353333691272 63.6646261239988 H 0.0 **** 0.06
15186 C 70.25802742262991 20.811128346885937 14.950729622599795 C 0.0 **** -0.24
15187 H 70.58451190504091 21.02574395813747 13.933222094888436 H 0.0 **** 0.06
15188 H 69.17323023426785 20.710003737620866 14.970814157301902 H 0.0 **** 0.06
15189 H 70.55967888468179 21.62620906915396 15.608391657776338 H 0.0 **** 0.06
15190 H 70.71599469841406 19.88205832371932 15.29070527238241 H 0.0 **** 0.06
15191 C 26.100973471857685 62.47412422244787 54.85946921942653 C 0.0 **** -0.24
15192 H 26.369204523449866 63.49746447522375 55.121363023768566 H 0.0 **** 0.06
15193 H 25.33968698568293 62.48633506934527 54.07893261993917 H 0.0 **** 0.06
15194 H 25.71067876343193 61.96394464773397 55.74072313282517 H 0.0 **** 0.06
15195 H 26.984358869729306 61.94802945355602 54.4975478345786 H 0.0 **** 0.06
15196 C 88.13975474210433 25.348093853414127 42.61935570005642 C 0.0 **** -0.24
15197 H 87.85797653414899 24.582579872697963 43.34248912761947 H 0.0 **** 0.06
15198 H 89.22444732253055 25.363932019858723 42.51050376327322 H 0.0 **** 0.06
15199 H 87.79502522544014 26.321731084811546 42.970480705562466 H 0.0 **** 0.06
15200 H 87.68016059895757 25.12609192812502 41.65643415513455 H 0.0 **** 0.06
15201 C 62.37316225186845 81.5185017757025 76.11390115962678 C 0.0 **** -0.24
15202 H 62.264642754990405 81.56474293616733 75.02999993479312 H 0.0 **** 0.06
15203 H 61.93925523549362 82.4129409588232 76.56005781409294 H 0.0 **** 0.06
15204 H 63.43091668019795 81.46064744687975 76.36967835234009 H 0.0 **** 0.06
15205 H 61.85855201906534 80.6358192117798 76.49313635703288 H 0.0 **** 0.06
15206 C 59.5166481838788 7.217112182889283 71.14618698554692 C 0.0 **** -0.24
15207 H 59.873770052785176 8.209258683671756 70.86638533442823 H 0.0 **** 0.06
15208 H 58.85590082197291 6.837096412005012 70.36616226308173 H 0.0 **** 0.06
15209 H 58.97050386491077 7.280638305677471 72.08757393700166 H 0.0 **** 0.06
15210 H 60.36675588489541 6.545296527205915 71.26316626959002 H 0.0 **** 0.06
15211 C 90.96845914222511 33.726936975245394 78.86934338887501 C 0.0 **** -0.24
15212 H 90.11324491247792 33.667141505513825 78.19580444666046 H 0.0 **** 0.06
15213 H 90.62962567721013 34.02860838820726 79.86103682037316 H 0.0 **** 0.06
15214 H 91.67907108025982 34.46024551023038 78.48945819724818 H 0.0 **** 0.06
15215 H 91.45022344136389 32.7515208643901 78.93146491910268 H 0.0 **** 0.06
15216 C 21.874216034224986 75.45918122364473 102.57785638558308 C 0.0 **** -0.24
15217 H 22.74154039571596 74.79918601324754 102.56889433871544 H 0.0 **** 0.06
15218 H 21.5478918870252 75.61553303781012 103.60732584374858 H 0.0 **** 0.06
15219 H 21.064979313117078 75.00364741170019 102.00643930985085 H 0.0 **** 0.06
15220 H 22.141088504492387 76.41646256415319 102.13168938478199 H 0.0 **** 0.06
15221 C 61.25276200143618 114.4490476742912 78.03804222034506 C 0.0 **** -0.24
15222 H 62.144145099491 114.44212992346299 77.41071704631418 H 0.0 **** 0.06
15223 H 60.366014803397306 114.35868726223269 77.41109331856237 H 0.0 **** 0.06
15224 H 61.20973866568674 115.3828969968657 78.59802789491215 H 0.0 **** 0.06
15225 H 61.29295656112657 113.61004825417838 78.73368652711713 H 0.0 **** 0.06
15226 C 101.36593311471363 76.5378659999933 64.67541750430351 C 0.0 **** -0.24
15227 H 101.67975757111354 76.46125048369169 63.633944566769884 H 0.0 **** 0.06
15228 H 100.91845933277935 75.59534744394182 64.99081493152477 H 0.0 **** 0.06
15229 H 100.63385153224945 77.3402338306135 64.77553777931475 H 0.0 **** 0.06
15230 H 102.23226111444478 76.7572845833509 65.29922582374336 H 0.0 **** 0.06
15231 C 36.12445097321843 42.4515428285783 30.85380778800055 C 0.0 **** -0.24
15232 H 36.493162788491766 41.65819250600808 31.504702917123893 H 0.0 **** 0.06
15233 H 35.13476232382574 42.76475054211613 31.18911506236111 H 0.0 **** 0.06
15234 H 36.06182995551326 42.08230244267011 29.830630068506593 H 0.0 **** 0.06
15235 H 36.80706537356377 43.30036678131334 30.894057394368303 H 0.0 **** 0.06
15236 C 28.522324035075528 21.896064372492788 43.14876416175099 C 0.0 **** -0.24
15237 H 28.193535952728034 20.88582388232861 43.39180959682727 H 0.0 **** 0.06
15238 H 28.840156849617422 22.404080225315354 44.05933582677642 H 0.0 **** 0.06
15239 H 27.69849904885551 22.445659926437457 42.69268224990421 H 0.0 **** 0.06
15240 H 29.35694991661058 21.846500647675683 42.44820101092327 H 0.0 **** 0.06
15241 C 6.174356094017201 74.66055945049757 58.541206971236306 C 0.0 **** -0.24
15242 H 6.30825721570889 74.67907600233768 57.45949666055657 H 0.0 **** 0.06
15243 H 7.098896032526319 74.97036626052467 59.0269765858188 H 0.0 **** 0.06
15244 H 5.918790671910289 73.649574245077 58.85796833741773 H 0.0 **** 0.06
15245 H 5.3702854692117405 75.34261324434743 58.818902215654504 H 0.0 **** 0.06
15246 C 64.00153921552314 21.33175992834951 87.22147518383626 C 0.0 **** -0.24
15247 H 64.85243275807528 20.661063914576296 87.34210522841738 H 0.0 **** 0.06
15248 H 63.45939299683414 21.070891383875885 86.31203926636402 H 0.0 **** 0.06
15249 H 64.35632187905148 22.360190347022943 87.150160953298 H 0.0 **** 0.06
15250 H 63.33758885603186 21.234580383819758 88.08074384939725 H 0.0 **** 0.06
15251 C 114.71950449462115 62.206027989364514 29.519074631812273 C 0.0 **** -0.24
15252 H 114.39817725289001 62.37114182984283 28.490477625406143 H 0.0 **** 0.06
15253 H 114.49110176104165 61.18085066978091 29.81019693910725 H 0.0 **** 0.06
15254 H 114.19451371849705 62.896988354712505 30.178388663076703 H 0.0 **** 0.06
15255 H 115.79374660904362 62.37580312221024 29.59492886558732 H 0.0 **** 0.06
15256 C 58.62615790379738 24.951658134637682 62.910641665013884 C 0.0 **** -0.24
15257 H 58.232232953808136 25.385122171386854 63.82981771356117 H 0.0 **** 0.06
15258 H 58.6372566592953 25.71024370752049 62.12701267860672 H 0.0 **** 0.06
15259 H 57.99405934906895 24.118778094697518 62.601939810670046 H 0.0 **** 0.06
15260 H 59.640549930264456 24.593242849955743 63.08341263765743 H 0.0 **** 0.06
15261 C 20.12689572659476 113.84285912418598 80.8860121844106 C 0.0 **** -0.24
15262 H 21.030361984006472 114.2201338845232 81.36552136534851 H 0.0 **** 0.06
15263 H 20.37746066889689 113.44719225811652 79.90096468143993 H 0.0 **** 0.06
15264 H 19.406410773414763 114.65470689917136 80.77988841858681 H 0.0 **** 0.06
15265 H 19.694873803707335 113.051021110513 81.49742950266986 H 0.0 **** 0.06
15266 C 8.9292744751655 8.643594313635475 8.529998251742342 C 0.0 **** -0.24
15267 H 8.34509909308386 9.1397224683129 9.304212988030471 H 0.0 **** 0.06
15268 H 9.480137405437915 7.810940158744961 8.969082215536702 H 0.0 **** 0.06
15269 H 9.630781398971422 9.353795663520483 8.0929369293722 H 0.0 **** 0.06
15270 H 8.261154921135642 8.268536632363677 7.755204402378766 H 0.0 **** 0.06
15271 C 110.37794196225772 42.22375091016002 23.25340685996416 C 0.0 **** -0.24
15272 H 111.08703509018956 42.60157693596025 23.990502530982795 H 0.0 **** 0.06
15273 H 110.14108804001063 43.01391380737803 22.53976937330573 H 0.0 **** 0.06
15274 H 109.4658112994224 41.90422922958493 23.75764898136606 H 0.0 **** 0.06
15275 H 110.81839759471166 41.37765539246021 22.7259452362934 H 0.0 **** 0.06
15276 C 31.82285272428618 17.829526080400512 97.93356514150406 C 0.0 **** -0.24
15277 H 31.168214833808634 18.445169145957266 98.55071538381986 H 0.0 **** 0.06
15278 H 32.38727292922778 18.469647241438054 97.25351555615333 H 0.0 **** 0.06
15279 H 31.223137529081896 17.125889489642816 97.35723735327872 H 0.0 **** 0.06
15280 H 32.5133773524571 17.27972322998926 98.57229674387833 H 0.0 **** 0.06
15281 C 35.83390027271301 10.30433217084456 47.23895291101513 C 0.0 **** -0.24
15282 H 36.59870167720004 9.765425856528537 47.79718071865642 H 0.0 **** 0.06
15283 H 35.86283750150599 9.997873195564665 46.19293468305574 H 0.0 **** 0.06
15284 H 36.019868527340066 11.37606436759819 47.30973756079777 H 0.0 **** 0.06
15285 H 34.8528642888609 10.077554905555075 47.657709508350194 H 0.0 **** 0.06
15286 C 28.061139314703183 17.942110935383 85.0861780108014 C 0.0 **** -0.24
15287 H 27.52009533761094 17.027084498700816 85.32814622076029 H 0.0 **** 0.06
15288 H 28.92827606576798 17.700109911214184 84.47209423458241 H 0.0 **** 0.06
15289 H 28.389917384706408 18.424317063709736 86.00754377201315 H 0.0 **** 0.06
15290 H 27.403789102501975 18.61821374158282 84.53738717771091 H 0.0 **** 0.06
15291 C 23.497327410508177 24.084129587864652 78.63828860040792 C 0.0 **** -0.24
15292 H 22.523810951101183 23.726587602971847 78.9726221817561 H 0.0 **** 0.06
15293 H 23.904522721605787 24.77454945915406 79.37735555845848 H 0.0 **** 0.06
15294 H 23.387247555417986 24.596944451641605 77.68260773666714 H 0.0 **** 0.06
15295 H 24.173932529210106 23.236653453853535 78.51968682130985 H 0.0 **** 0.06
15296 C 43.320796015940545 80.56597457987249 88.79979631840433 C 0.0 **** -0.24
15297 H 43.066028082605214 79.86702591549229 88.00285676975722 H 0.0 **** 0.06
15298 H 42.43450639698156 81.1356726957448 89.07935190985523 H 0.0 **** 0.06
15299 H 44.09661071792755 81.24712865898334 88.4504122705008 H 0.0 **** 0.06
15300 H 43.6860086418086 80.01226145039001 89.6639710616584 H 0.0 **** 0.06
15301 C 28.1746053987232 102.87745705516443 63.314679502609806 C 0.0 **** -0.24
15302 H 28.479830701157823 103.90482457263431 63.11693210586897 H 0.0 **** 0.06
15303 H 28.745651340395284 102.48595784085944 64.15786902975624 H 0.0 **** 0.06
15304 H 28.36259579324775 102.26649555526444 62.4326397493185 H 0.0 **** 0.06
15305 H 27.111552449672274 102.8536599964674 63.554159513737105 H 0.0 **** 0.06
15306 C 30.447900322060462 22.906821429545175 90.14182754703928 C 0.0 **** -0.24
15307 H 29.502039140669282 23.181188676797404 89.67453555683589 H 0.0 **** 0.06
15308 H 30.615204202718218 23.533167221925197 91.0180934406093 H 0.0 **** 0.06
15309 H 31.260233688131336 23.051379958654223 89.43039882920993 H 0.0 **** 0.06
15310 H 30.41252742780624 21.86017563764929 90.44503198303566 H 0.0 **** 0.06
15311 C 75.46324140787144 56.53535382319623 26.84775638323731 C 0.0 **** -0.24
15312 H 76.49790737818648 56.755722916109605 26.58481655296896 H 0.0 **** 0.06
15313 H 74.7994065619377 56.949463908858036 26.08825276903707 H 0.0 **** 0.06
15314 H 75.23120801993801 56.97982449733156 27.815255656447505 H 0.0 **** 0.06
15315 H 75.32464079079728 55.45564708496611 26.902077397111952 H 0.0 **** 0.06
15316 C 0.031973153615069805 87.54925531535429 58.38231109698313 C 0.0 **** -0.24
15317 H -0.20246576393677174 88.56880037299709 58.68936786449481 H 0.0 **** 0.06
15318 H -0.11781543742026201 87.4501637574142 57.306795013530405 H 0.0 **** 0.06
15319 H -0.6229388548584325 86.85304253496543 58.9069696758753 H 0.0 **** 0.06
15320 H 1.070022034738713 87.32497453521785 58.627011290594226 H 0.0 **** 0.06
15321 C 85.48728677542654 67.86894585368401 107.40685409551213 C 0.0 **** -0.24
15322 H 84.81957852535899 68.65319444143154 107.04913711022675 H 0.0 **** 0.06
15323 H 84.97919465664214 67.28008624563705 108.1704870648777 H 0.0 **** 0.06
15324 H 86.38243889838398 68.32177849826724 107.83294893945697 H 0.0 **** 0.06
15325 H 85.76751725380412 67.22291033787172 106.57505933313217 H 0.0 **** 0.06
15326 C 23.605125311812035 78.58238147237567 56.85127187440878 C 0.0 **** -0.24
15327 H 24.201832844971598 77.91076963844229 56.23431709584567 H 0.0 **** 0.06
15328 H 22.546540125822894 78.36652381959716 56.704083304773846 H 0.0 **** 0.06
15329 H 23.809073085348558 79.61472438376187 56.56491363239739 H 0.0 **** 0.06
15330 H 23.86429623864019 78.43857920004668 57.89995336164239 H 0.0 **** 0.06
15331 C 29.71720354652937 23.470471042008953 11.67649717219929 C 0.0 **** -0.24
15332 H 28.94378712797527 23.921507190709402 11.054769745592466 H 0.0 **** 0.06
15333 H 30.095172191661696 24.211076742312613 12.38103633581487 H 0.0 **** 0.06
15334 H 30.532577902196778 23.120702219382327 11.04340004037951 H 0.0 **** 0.06
15335 H 29.296964033278833 22.627334005082446 12.22564041023277 H 0.0 **** 0.06
15336 C 87.49725749008041 61.84799454007434 29.916544785038354 C 0.0 **** -0.24
15337 H 86.67457764657992 62.101522125818704 30.584955720184837 H 0.0 **** 0.06
15338 H 87.47415298606441 62.505297696042604 29.046782546233374 H 0.0 **** 0.06
15339 H 87.39552636637548 60.812112390310915 29.592774014945007 H 0.0 **** 0.06
15340 H 88.44477296130192 61.97304594812509 30.44166685879037 H 0.0 **** 0.06
15341 C 92.81579927460857 111.69458842942521 53.52962506918664 C 0.0 **** -0.24
15342 H 92.01270972166776 111.80258571688636 52.79999135287967 H 0.0 **** 0.06
15343 H 93.14510460817854 112.6810492258974 53.8564807931722 H 0.0 **** 0.06
15344 H 93.65225467751395 111.16482919034544 53.07367763066375 H 0.0 **** 0.06
15345 H 92.45240886595263 111.13040360990522 54.38881799339302 H 0.0 **** 0.06
15346 C 47.94546695977678 5.199850706011205 107.6872996249054 C 0.0 **** -0.24
15347 H 47.766949850517534 4.690310516343558 108.63412695027476 H 0.0 **** 0.06
15348 H 48.90153625116332 5.721546898495575 107.73006812716407 H 0.0 **** 0.06
15349 H 47.14632030416185 5.918881856077249 107.50586256080835 H 0.0 **** 0.06
15350 H 47.96486195433603 4.468313283188962 106.87894114226505 H 0.0 **** 0.06
15351 C 20.65521430912166 111.49138753684902 57.12542978732972 C 0.0 **** -0.24
15352 H 19.814481238730096 111.03214844582249 56.6054721785199 H 0.0 **** 0.06
15353 H 21.418728123387226 110.73695325019793 57.3183991845724 H 0.0 **** 0.06
15354 H 20.31209808853785 111.9119837185252 58.07009036306101 H 0.0 **** 0.06
15355 H 21.075525565210086 112.2836347616623 56.50568116559498 H 0.0 **** 0.06
15356 C 43.43349841172343 103.63907455291502 54.34445402715754 C 0.0 **** -0.24
15357 H 42.99999141078214 103.24326870406702 53.42539906162207 H 0.0 **** 0.06
15358 H 44.51867418736937 103.67433581102537 54.24706436163369 H 0.0 **** 0.06
15359 H 43.163839099749815 102.99353501122431 55.18041821265487 H 0.0 **** 0.06
15360 H 43.05142095024444 104.64389645496601 54.52203572829016 H 0.0 **** 0.06
15361 C 73.07415222137885 7.596051189288687 15.877823601925169 C 0.0 **** -0.24
15362 H 73.71954972503733 7.992630560857108 16.66214271284196 H 0.0 **** 0.06
15363 H 72.78123569054115 6.57628893693024 16.130796921058366 H 0.0 **** 0.06
15364 H 73.61333928363842 7.595111583551898 14.930308954970169 H 0.0 **** 0.06
15365 H 72.18496866909504 8.219545975652906 15.789605898795934 H 0.0 **** 0.06
15366 C 35.85236663477806 84.057460209579 68.02621865778828 C 0.0 **** -0.24
15367 H 36.105685086387865 83.38606842796196 67.20602028741496 H 0.0 **** 0.06
15368 H 35.37600137659053 83.48972205655099 68.82643498445951 H 0.0 **** 0.06
15369 H 35.16818264592801 84.82662220121648 67.66777248361137 H 0.0 **** 0.06
15370 H 36.76088969412563 84.52731762335713 68.40408300424998 H 0.0 **** 0.06
15371 C 11.295127948659868 40.01974329945407 54.20933670917168 C 0.0 **** -0.24
15372 H 11.13564267743672 40.98363562551928 53.7269784041128 H 0.0 **** 0.06
15373 H 10.6697223280959 39.266123679692534 53.73145199983156 H 0.0 **** 0.06
15374 H 11.032845144127208 40.094361635035135 55.26529194611919 H 0.0 **** 0.06
15375 H 12.343285051407577 39.73594132795343 54.11531182826184 H 0.0 **** 0.06
15376 C 85.7918842184313 108.19819518241476 0.7236756642246434 C 0.0 **** -0.24
15377 H 85.48995434630287 108.71341293446214 1.6360728529410409 H 0.0 **** 0.06
15378 H 85.06186826858416 108.39355368590373 -0.06277166818556168 H 0.0 **** 0.06
15379 H 85.84424498205311 107.12663434597653 0.9131808351330193 H 0.0 **** 0.06
15380 H 86.77066523668562 108.56138244303719 0.4089292008659129 H 0.0 **** 0.06
15381 C 71.31947728345557 10.915579269287747 60.21946466528627 C 0.0 **** -0.24
15382 H 71.62552105644662 11.800482151855164 59.662673345609306 H 0.0 **** 0.06
15383 H 70.31962373585345 11.069382035181675 60.62641084829812 H 0.0 **** 0.06
15384 H 72.02046732831874 10.739030295713292 61.03608026998481 H 0.0 **** 0.06
15385 H 71.31167257615614 10.051924784783395 59.55423267995792 H 0.0 **** 0.06
15386 C 69.74380078215508 82.44403426831929 67.75234722923295 C 0.0 **** -0.24
15387 H 70.67890948893562 82.93947677017195 67.49012400511485 H 0.0 **** 0.06
15388 H 69.42830309259689 81.80405670508094 66.92739658297614 H 0.0 **** 0.06
15389 H 68.97634755016499 83.19416145411071 67.94400920624656 H 0.0 **** 0.06
15390 H 69.8924417370586 81.83844513704958 68.64577051311743 H 0.0 **** 0.06
15391 C 29.93434517748392 80.8828004634767 8.99969109425777 C 0.0 **** -0.24
15392 H 28.96266259875412 80.50651988517836 8.679176713325376 H 0.0 **** 0.06
15393 H 29.98123505315624 80.8844875151327 10.088146413159905 H 0.0 **** 0.06
15394 H 30.072050378270006 81.89790291072376 8.62665774612617 H 0.0 **** 0.06
15395 H 30.720376431211434 80.24107104460043 8.602254624283773 H 0.0 **** 0.06
15396 C 90.73953517025973 40.02391963711173 16.436309888046026 C 0.0 **** -0.24
15397 H 90.38833477600036 39.0248137405884 16.697500124867148 H 0.0 **** 0.06
15398 H 91.79498649538996 39.97842612318016 16.166937611492244 H 0.0 **** 0.06
15399 H 90.60975366434286 40.68967975590931 17.288879951942448 H 0.0 **** 0.06
15400 H 90.16479238723161 40.40083675320636 15.589634719761548 H 0.0 **** 0.06
15401 C 53.579393260614495 88.6583140352372 59.63296665626882 C 0.0 **** -0.24
15402 H 54.21246470973199 87.91057772490524 60.110112832682375 H 0.0 **** 0.06
15403 H 52.80530166899973 88.97790345935152 60.33078925106105 H 0.0 **** 0.06
15404 H 53.11417096767815 88.22811393929851 58.7455723249754 H 0.0 **** 0.06
15405 H 54.18530706044902 89.51640343984155 59.34448353087225 H 0.0 **** 0.06
15406 C 110.12000191444201 55.946776552858 30.75470481048154 C 0.0 **** -0.24
15407 H 110.58652168255401 55.88973975925963 31.73813740112729 H 0.0 **** 0.06
15408 H 110.53266763520094 56.7932114727179 30.206005013488266 H 0.0 **** 0.06
15409 H 109.04430058361325 56.07743040144561 30.870987876301 H 0.0 **** 0.06
15410 H 110.31761464055666 55.02586399236826 30.205437242121775 H 0.0 **** 0.06
15411 C 27.666987108099775 106.9151340024179 42.90207433683884 C 0.0 **** -0.24
15412 H 28.251899702036994 107.32211585294878 42.076830358549074 H 0.0 **** 0.06
15413 H 27.91578524267055 105.86338492841118 43.039631106632015 H 0.0 **** 0.06
15414 H 26.604912395560532 107.01143831713627 42.675016239445 H 0.0 **** 0.06
15415 H 27.895289742557566 107.46570193611778 43.81468291205377 H 0.0 **** 0.06
15416 C 27.85276313515277 11.858515199291404 61.80426309166215 C 0.0 **** -0.24
15417 H 28.33614076070529 11.354504829745096 62.64114132019712 H 0.0 **** 0.06
15418 H 27.283319161922577 12.711145770866523 62.17388750987193 H 0.0 **** 0.06
15419 H 27.181423812394314 11.16285667449226 61.29969956904749 H 0.0 **** 0.06
15420 H 28.61211436312709 12.204082723573862 61.10209615435106 H 0.0 **** 0.06
15421 C 73.28379613902572 105.0119586497184 33.311300886694454 C 0.0 **** -0.24
15422 H 72.23648023155368 104.93288201113546 33.60443205727765 H 0.0 **** 0.06
15423 H 73.43417523069911 105.93366564995517 32.7479333597621 H 0.0 **** 0.06
15424 H 73.55192647263763 104.15879887949666 32.689455253248894 H 0.0 **** 0.06
15425 H 73.9106700479731 105.02346458375428 34.202824447446346 H 0.0 **** 0.06
15426 C 68.70802137437846 89.3505517346359 47.18956641882485 C 0.0 **** -0.24
15427 H 69.17360096272249 90.22973161778526 46.74484639486183 H 0.0 **** 0.06
15428 H 69.20581193452972 88.45151168996907 46.82442372880048 H 0.0 **** 0.06
15429 H 67.65376848484556 89.31991918271655 46.915280038559416 H 0.0 **** 0.06
15430 H 68.79937769379227 89.40086213299071 48.27457722161005 H 0.0 **** 0.06
15431 C 111.33583191338366 20.789336865740324 71.19990683625275 C 0.0 **** -0.24
15432 H 110.33515237203142 20.77144474233998 70.76648214485766 H 0.0 **** 0.06
15433 H 111.32520307089268 21.38457890204694 72.11315298023538 H 0.0 **** 0.06
15434 H 112.0326509338575 21.22816504577216 70.48642972898637 H 0.0 **** 0.06
15435 H 111.64822481233278 19.771279839678357 71.43328880836577 H 0.0 **** 0.06
15436 C 113.39896667975103 107.57038695965912 100.44675190366834 C 0.0 **** -0.24
15437 H 113.9293101546798 106.91912575629098 99.75100175046812 H 0.0 **** 0.06
15438 H 114.0755824976248 107.87790446510975 101.24377232084655 H 0.0 **** 0.06
15439 H 112.55364759499109 107.03082957909974 100.87486646940944 H 0.0 **** 0.06
15440 H 113.03717435286892 108.45071562071335 99.91533180155255 H 0.0 **** 0.06
15441 C 41.862506487121436 10.414076445551018 78.54265669055461 C 0.0 **** -0.24
15442 H 42.18256117654688 11.346652485079005 78.07701677732003 H 0.0 **** 0.06
15443 H 41.24818906713516 9.849576557793057 77.84093697550861 H 0.0 **** 0.06
15444 H 41.28123279200983 10.637901423660821 79.43724029952298 H 0.0 **** 0.06
15445 H 42.73800830692386 9.825710295644399 78.81614225777192 H 0.0 **** 0.06
15446 C 77.05800628391914 82.04473385325976 0.280936129411856 C 0.0 **** -0.24
15447 H 76.67091578443299 82.09533872845394 -0.7357415620409284 H 0.0 **** 0.06
15448 H 77.99889836592469 82.59179259158152 0.3399223725720333 H 0.0 **** 0.06
15449 H 77.2256247470277 81.00247090393508 0.5546378259344209 H 0.0 **** 0.06
15450 H 76.3359907594604 82.48817058578933 0.9669981021522318 H 0.0 **** 0.06
15451 C 36.57208749806222 115.61040542823689 110.2308340047532 C 0.0 **** -0.24
15452 H 37.528057388658624 115.40907764793303 109.74776234511293 H 0.0 **** 0.06
15453 H 36.70294301454953 115.59695277792945 111.313008404453 H 0.0 **** 0.06
15454 H 35.85041995751891 114.84573018636141 109.94305578544433 H 0.0 **** 0.06
15455 H 36.20766130012072 116.58981273067535 109.92071879584171 H 0.0 **** 0.06
15456 C 94.61930724197069 92.51881616366866 32.77356024513835 C 0.0 **** -0.24
15457 H 93.82782359082958 93.25658143719853 32.644612411828724 H 0.0 **** 0.06
15458 H 94.2145977588861 91.63599627146222 33.27016060892937 H 0.0 **** 0.06
15459 H 95.41694466878823 92.94533693650575 33.38290513617512 H 0.0 **** 0.06
15460 H 95.01706547071211 92.2380093944513 31.79854512621609 H 0.0 **** 0.06
15461 C 115.77639283784525 37.55987908564913 8.182785804788352 C 0.0 **** -0.24
15462 H 116.83645607672015 37.7970437245292 8.093615136312309 H 0.0 **** 0.06
15463 H 115.24406696839854 38.421671362366226 8.58443210859167 H 0.0 **** 0.06
15464 H 115.64968732467865 36.70890914614802 8.85184739734241 H 0.0 **** 0.06
15465 H 115.37562067184977 37.3112042696913 7.199388559504172 H 0.0 **** 0.06
15466 C 9.634807004336523 2.1711549376717585 108.84066118762789 C 0.0 **** -0.24
15467 H 10.090097977768224 3.159223189412131 108.78221676981025 H 0.0 **** 0.06
15468 H 9.433343804466034 1.9242037990332364 109.88277262024454 H 0.0 **** 0.06
15469 H 10.315283785364642 1.4321863530865926 108.41653221299129 H 0.0 **** 0.06
15470 H 8.70020644687881 2.1688057634657696 108.27891579431787 H 0.0 **** 0.06
15471 C 102.99108340640208 112.07975851152025 52.67676962120453 C 0.0 **** -0.24
15472 H 103.20682982767352 112.14243148449839 51.610391119987725 H 0.0 **** 0.06
15473 H 102.30501436501237 112.879400215305 52.95591110226826 H 0.0 **** 0.06
15474 H 103.91825382301238 112.18147586944241 53.240923997978 H 0.0 **** 0.06
15475 H 102.53471368309454 111.1144303274894 52.89880746149737 H 0.0 **** 0.06
15476 C 51.07028319739257 16.515280587331574 21.945505392157145 C 0.0 **** -0.24
15477 H 51.394558223697345 15.481126963333452 21.827855214560913 H 0.0 **** 0.06
15478 H 51.91872937953465 17.181860582919455 21.789843072676774 H 0.0 **** 0.06
15479 H 50.67358775802134 16.65911491736648 22.949807083378744 H 0.0 **** 0.06
15480 H 50.294209912689695 16.737940551569523 21.21316233292609 H 0.0 **** 0.06
15481 C 114.28258150780246 92.31270598501717 75.41131479784079 C 0.0 **** -0.24
15482 H 114.38658280996563 92.93235421446208 74.5208843799548 H 0.0 **** 0.06
15483 H 115.07178327232143 92.56115737174503 76.12158030524542 H 0.0 **** 0.06
15484 H 114.36232473884957 91.26112895778469 75.1337929267139 H 0.0 **** 0.06
15485 H 113.3105441747974 92.49471860942076 75.86916996522311 H 0.0 **** 0.06
15486 C 57.633963429261314 49.56361773806205 39.71058312992375 C 0.0 **** -0.24
15487 H 57.99813970451953 50.531716151022096 40.0547788144778 H 0.0 **** 0.06
15488 H 57.1698872618083 49.0340741547069 40.542291266967425 H 0.0 **** 0.06
15489 H 58.46883680650893 48.97775468524358 39.32526311152577 H 0.0 **** 0.06
15490 H 56.89976075588447 49.71300621354264 38.918960702134484 H 0.0 **** 0.06
15491 C 28.09985952251965 85.38473741871408 0.24776773927142415 C 0.0 **** -0.24
15492 H 28.002693286728302 84.77359020793668 -0.649302123832797 H 0.0 **** 0.06
15493 H 29.093408848397118 85.24743315128869 0.6745942067778401 H 0.0 **** 0.06
15494 H 27.347063489940794 85.08395727562177 0.9765770463757804 H 0.0 **** 0.06
15495 H 27.95708646453832 86.43439129837505 -0.010399224236394389 H 0.0 **** 0.06
15496 C 109.96160467243052 64.38244369817603 4.979780107304384 C 0.0 **** -0.24
15497 H 109.56347477781333 63.49314891646398 5.466776865296115 H 0.0 **** 0.06
15498 H 111.01224074638668 64.22311427898184 4.734450523528647 H 0.0 **** 0.06
15499 H 109.87063918664455 65.23600179452609 5.651965679095614 H 0.0 **** 0.06
15500 H 109.40065235741409 64.57871888352038 4.066365594192115 H 0.0 **** 0.06
15501 C 5.62789577572741 77.11902269276311 105.89833229946731 C 0.0 **** -0.24
15502 H 5.399693068143435 76.9774836712819 104.84177051587574 H 0.0 **** 0.06
15503 H 4.85147513207842 76.65006045731502 106.50308181888647 H 0.0 **** 0.06
15504 H 5.669988192111319 78.185076340102 106.12078090515706 H 0.0 **** 0.06
15505 H 6.5916665583329745 76.66170543476517 106.1256106446171 H 0.0 **** 0.06
15506 C 20.394178593846576 55.307140440510615 102.4781499302299 C 0.0 **** -0.24
15507 H 19.582939242732426 54.62046180455465 102.72181521670149 H 0.0 **** 0.06
15508 H 21.281845192128515 55.03855168544576 103.05010411991418 H 0.0 **** 0.06
15509 H 20.094433552895723 56.32497540518216 102.726614050259 H 0.0 **** 0.06
15510 H 20.614297463616268 55.24339197116863 101.41174828806237 H 0.0 **** 0.06
15511 C 60.42804950104812 104.62561250001303 113.09078220676855 C 0.0 **** -0.24
15512 H 59.75800039258269 105.03965036359273 113.84415819940384 H 0.0 **** 0.06
15513 H 60.81694362426765 103.66761678837727 113.43702514990159 H 0.0 **** 0.06
15514 H 61.256259614817736 105.31447504509029 112.92233340914234 H 0.0 **** 0.06
15515 H 59.881518043700396 104.48042065942428 112.15880996269013 H 0.0 **** 0.06
15516 C 40.32513306532206 115.29242386796642 45.32047197873044 C 0.0 **** -0.24
15517 H 40.1045744982097 114.28765389793253 45.68266371416655 H 0.0 **** 0.06
15518 H 39.82051403048626 115.45290977937329 44.366962912275994 H 0.0 **** 0.06
15519 H 41.40122310767176 115.40041338257242 45.18560158300028 H 0.0 **** 0.06
15520 H 39.97403183204179 116.02499128891779 46.046388215256854 H 0.0 **** 0.06
15521 C 1.360094430600327 97.80007769532853 38.245106641178495 C 0.0 **** -0.24
15522 H 0.4395790413924914 98.21697622293436 38.654491089803685 H 0.0 **** 0.06
15523 H 1.4424033646902927 96.75230273559033 38.531653929484946 H 0.0 **** 0.06
15524 H 2.213749546496615 98.35283913206025 38.6369602813553 H 0.0 **** 0.06
15525 H 1.3426623768979198 97.8803738155355 37.158840958962855 H 0.0 **** 0.06
15526 C 62.442106778705025 46.185628613055854 12.847916099900829 C 0.0 **** -0.24
15527 H 62.695052591106375 47.160950238137744 12.431673718725193 H 0.0 **** 0.06
15528 H 62.4432497826013 45.440682596056824 12.05236430084068 H 0.0 **** 0.06
15529 H 61.452199013915916 46.23065862966299 13.302613254728612 H 0.0 **** 0.06
15530 H 63.17821604132217 45.91231209117861 13.604270392883109 H 0.0 **** 0.06
15531 C 33.77022426459783 33.86183508619129 108.72219924519703 C 0.0 **** -0.24
15532 H 32.9944294102244 33.15101191922288 109.00894197694544 H 0.0 **** 0.06
15533 H 33.998567478699385 33.74189509181849 107.66207073458588 H 0.0 **** 0.06
15534 H 34.66903698450912 33.67615214343148 109.31060821850252 H 0.0 **** 0.06
15535 H 33.41860690348713 34.876675301869724 108.90534417102208 H 0.0 **** 0.06
15536 C 52.616941765701085 111.10964343566333 35.89970934205702 C 0.0 **** -0.24
15537 H 52.8889643741623 110.5083995748224 35.03195067931436 H 0.0 **** 0.06
15538 H 51.79347119678425 110.63006271539118 36.428954195250554 H 0.0 **** 0.06
15539 H 52.30887618519375 112.10247896339766 35.57180879379372 H 0.0 **** 0.06
15540 H 53.475042582617164 111.1965203449842 36.564794177146155 H 0.0 **** 0.06
15541 C 17.16823376083545 64.57479129381932 43.924590100670414 C 0.0 **** -0.24
15542 H 17.13895919726727 63.504355638092676 43.719897431912585 H 0.0 **** 0.06
15543 H 16.18596990101031 65.00857959637767 43.73360829214579 H 0.0 **** 0.06
15544 H 17.907242397147513 65.04799214733262 43.27883807249765 H 0.0 **** 0.06
15545 H 17.441189895566737 64.73750367179474 44.9683143515887 H 0.0 **** 0.06
15546 C 21.32456721906378 108.94314279089784 65.39212623609885 C 0.0 **** -0.24
15547 H 20.68201535666651 108.99901525059695 66.27090489691017 H 0.0 **** 0.06
15548 H 21.54459504237677 109.9511438350358 65.03871107119141 H 0.0 **** 0.06
15549 H 20.815979035347524 108.38477766622648 64.60534159055943 H 0.0 **** 0.06
15550 H 22.254646217321493 108.4382442924539 65.6527986492833 H 0.0 **** 0.06
15551 C 52.44514707182208 5.338962217368191 29.14279210680033 C 0.0 **** -0.24
15552 H 53.272361806378285 4.913306624049142 29.70993547226385 H 0.0 **** 0.06
15553 H 52.77160535367676 5.543143929562376 28.122021077527236 H 0.0 **** 0.06
15554 H 52.12154177729525 6.2669842845615165 29.613560818509143 H 0.0 **** 0.06
15555 H 51.61587297239052 4.632284120679742 29.12448770153631 H 0.0 **** 0.06
15556 C 5.225160521194068 96.100290371782 108.3483412569849 C 0.0 **** -0.24
15557 H 4.658733688312115 96.84791016159356 107.79420158548541 H 0.0 **** 0.06
15558 H 6.292101041277249 96.28920284119145 108.22791042504005 H 0.0 **** 0.06
15559 H 4.986275881741845 95.10652607337562 107.96805154133816 H 0.0 **** 0.06
15560 H 4.964069803089695 96.15709224050994 109.40555211338173 H 0.0 **** 0.06
15561 C 9.139023206028355 105.97271759379129 18.98636995149312 C 0.0 **** -0.24
15562 H 9.458950817800002 107.01362973927803 19.03466888936238 H 0.0 **** 0.06
15563 H 9.829157532424517 105.40883322918933 18.35833362938583 H 0.0 **** 0.06
15564 H 8.136423792426228 105.92079558540689 18.56106051815438 H 0.0 **** 0.06
15565 H 9.131537089844755 105.54809860154319 19.990089138795298 H 0.0 **** 0.06
15566 C 9.101436823119002 0.1892507165670736 37.208411887824184 C 0.0 **** -0.24
15567 H 9.298964580298076 0.8955324729764129 36.4020630694929 H 0.0 **** 0.06
15568 H 9.862761318254172 0.29872962645066536 37.98098095014544 H 0.0 **** 0.06
15569 H 9.126751693576665 -0.8266721687331824 36.81407141226745 H 0.0 **** 0.06
15570 H 8.118724109378604 0.3892187593236258 37.63517299562902 H 0.0 **** 0.06
15571 C 35.78778605224443 56.31210780663696 17.769059902373414 C 0.0 **** -0.24
15572 H 35.15494179642005 57.046009292429034 18.268240552542608 H 0.0 **** 0.06
15573 H 36.73473405730354 56.77631159080178 17.493174258804515 H 0.0 **** 0.06
15574 H 35.28520525964501 55.94881935666973 16.873075772730033 H 0.0 **** 0.06
15575 H 35.97553658281288 55.476297126133005 18.444484885828388 H 0.0 **** 0.06
15576 C 21.687809266469714 112.0726523005273 50.329919171450456 C 0.0 **** -0.24
15577 H 22.2608821925007 112.85920732596193 50.81932603913657 H 0.0 **** 0.06
15578 H 22.275441282251176 111.15462614580682 50.308631332495224 H 0.0 **** 0.06
15579 H 21.44975467280944 112.37605355294892 49.31050010393426 H 0.0 **** 0.06
15580 H 20.764254499450914 111.89947036533076 50.882003533934665 H 0.0 **** 0.06
15581 C 42.63404513986967 22.337553314704564 108.76207423150771 C 0.0 **** -0.24
15582 H 42.782643646447525 21.332247301711845 109.15641021140246 H 0.0 **** 0.06
15583 H 41.57702149006579 22.49205355144099 108.54881347066463 H 0.0 **** 0.06
15584 H 43.21164480920885 22.456066102054905 107.8458827466994 H 0.0 **** 0.06
15585 H 42.96819903680853 23.069064419522334 109.49871071216043 H 0.0 **** 0.06
15586 C 18.949330986456744 14.763699591422153 53.78865029138183 C 0.0 **** -0.24
15587 H 19.444140873329445 14.138769570177772 53.045549915660786 H 0.0 **** 0.06
15588 H 18.05122573653614 15.201512612224349 53.35502468008124 H 0.0 **** 0.06
15589 H 19.626234808556035 15.557495698497519 54.103668510844955 H 0.0 **** 0.06
15590 H 18.67753605670174 14.15415502479658 54.651065825052285 H 0.0 **** 0.06
15591 C 103.976577204076 1.7089238464378838 62.96909729779094 C 0.0 **** -0.24
15592 H 104.94238773423503 1.5611735131439701 63.451517622984 H 0.0 **** 0.06
15593 H 103.70099952694932 0.8066669310247931 62.42256459881625 H 0.0 **** 0.06
15594 H 104.04135596743527 2.5477745552474573 62.276284379110564 H 0.0 **** 0.06
15595 H 103.2207493366584 1.9199307165642097 63.72658061362557 H 0.0 **** 0.06
15596 C 79.36087586515181 67.43344872660197 56.65324323717476 C 0.0 **** -0.24
15597 H 80.29322514350876 66.8749687766591 56.738984399407286 H 0.0 **** 0.06
15598 H 79.5173342518417 68.30594109893426 56.01798387727132 H 0.0 **** 0.06
15599 H 79.03813484991271 67.75706205319389 57.64248040314055 H 0.0 **** 0.06
15600 H 78.59498393917967 66.79453851718316 56.21144581413202 H 0.0 **** 0.06
15601 C 89.8074656336895 35.87602298230547 28.291912416635228 C 0.0 **** -0.24
15602 H 89.65296626517744 35.38461282345196 27.33087776442744 H 0.0 **** 0.06
15603 H 89.43177194891544 36.89882321267601 28.240496457468907 H 0.0 **** 0.06
15604 H 90.87223526817064 35.89038438188015 28.525015268981974 H 0.0 **** 0.06
15605 H 89.27290840094253 35.33147774052259 29.069128280340294 H 0.0 **** 0.06
15606 C 78.75874556772145 60.64489346353591 25.804449548582852 C 0.0 **** -0.24
15607 H 77.7710669400361 60.18334014853798 25.837917571392097 H 0.0 **** 0.06
15608 H 78.6913211663191 61.61025254462237 25.30231472875927 H 0.0 **** 0.06
15609 H 79.44278600697261 59.9966221664105 25.256610550480758 H 0.0 **** 0.06
15610 H 79.12712589535604 60.78748640193504 26.82040808528089 H 0.0 **** 0.06
15611 C 87.27546248457858 31.171635707599535 103.8329699453779 C 0.0 **** -0.24
15612 H 86.31434189676054 31.464667953545018 103.40864346497543 H 0.0 **** 0.06
15613 H 87.54110784861204 30.175974296862876 103.47606166929674 H 0.0 **** 0.06
15614 H 87.20396291268412 31.161754274017767 104.91993160183878 H 0.0 **** 0.06
15615 H 88.04038379928393 31.88473280103028 103.52491070579032 H 0.0 **** 0.06
15616 C 26.387945487036177 31.570188023721094 4.924420703754917 C 0.0 **** -0.24
15617 H 25.905206877218887 32.51629989929058 4.678162002958938 H 0.0 **** 0.06
15618 H 25.809588217277536 31.05794003512635 5.6942450354614085 H 0.0 **** 0.06
15619 H 27.39529279834025 31.760978849883486 5.293059753548034 H 0.0 **** 0.06
15620 H 26.438814007485746 30.945620692112236 4.033519195192309 H 0.0 **** 0.06
15621 C 77.25223096526321 52.860424030812574 25.88007124890376 C 0.0 **** -0.24
15622 H 77.07780029356331 53.25123295146926 26.88340119492375 H 0.0 **** 0.06
15623 H 78.11884751299766 53.35713562042373 25.44293059428486 H 0.0 **** 0.06
15624 H 76.37508638453238 53.047599023175074 25.260621926780118 H 0.0 **** 0.06
15625 H 77.43636008713668 51.78822004526471 25.935357300467786 H 0.0 **** 0.06
15626 C 78.47459779648591 65.14677304346003 92.51293106481114 C 0.0 **** -0.24
15627 H 79.19772457451472 65.25150828764423 91.70308241316809 H 0.0 **** 0.06
15628 H 79.0029490256353 65.07261279573767 93.46374851569473 H 0.0 **** 0.06
15629 H 77.88167256653469 64.24569219699568 92.35591343105759 H 0.0 **** 0.06
15630 H 77.8178824507257 66.0164453622814 92.52801586836762 H 0.0 **** 0.06
15631 C 7.4351430396743865 51.837699453114055 22.666631269945768 C 0.0 **** -0.24
15632 H 6.861403053309147 52.69465523220412 23.019717352327817 H 0.0 **** 0.06
15633 H 7.201631445836924 50.966582943147564 23.27864589896197 H 0.0 **** 0.06
15634 H 8.500484884340821 52.05860828894886 22.740249578023253 H 0.0 **** 0.06
15635 H 7.177140517711194 51.63328381746733 21.627169129122166 H 0.0 **** 0.06
15636 C 102.91204338417805 98.95471337949544 68.17574092927052 C 0.0 **** -0.24
15637 H 102.72129159587539 98.52213749772284 67.19455322559054 H 0.0 **** 0.06
15638 H 103.56644904230234 99.8204161691418 68.07029658956017 H 0.0 **** 0.06
15639 H 103.39176125536642 98.21172501863394 68.81247052998157 H 0.0 **** 0.06
15640 H 101.96885447015615 99.2653600712471 68.62623500632856 H 0.0 **** 0.06
15641 C 80.46436425670971 106.25907561996286 10.247138221389804 C 0.0 **** -0.24
15642 H 80.74070037633989 107.24821991233415 9.881605065696647 H 0.0 **** 0.06
15643 H 79.49716743098666 106.31370968549578 10.746291449604911 H 0.0 **** 0.06
15644 H 81.21827662451332 105.90755354061605 10.951204907479223 H 0.0 **** 0.06
15645 H 80.4009791544215 105.56721462693639 9.407057113617654 H 0.0 **** 0.06
15646 C 108.12554648064112 29.749897534139656 26.83263652100399 C 0.0 **** -0.24
15647 H 109.0526917545577 29.29002018782343 27.17408197340754 H 0.0 **** 0.06
15648 H 108.35727364469268 30.616264430461847 26.213162168965056 H 0.0 **** 0.06
15649 H 107.53768108624882 30.066449500288414 27.69419480880964 H 0.0 **** 0.06
15650 H 107.55551463703112 29.02692945123075 26.24889820833286 H 0.0 **** 0.06
15651 C 58.39980924114448 29.429390681222998 59.00083236504902 C 0.0 **** -0.24
15652 H 57.408739994545016 29.62515530079338 59.410324151651864 H 0.0 **** 0.06
15653 H 58.31777670689074 28.71846593808675 58.177100385900275 H 0.0 **** 0.06
15654 H 59.03792645411653 29.012130672114267 59.77886898263657 H 0.0 **** 0.06
15655 H 58.83216731540551 30.360015367023266 58.63506649900775 H 0.0 **** 0.06
15656 C 60.18952900651075 55.61240823503505 1.2092184186302717 C 0.0 **** -0.24
15657 H 60.383739333647256 54.60192957761001 0.852319727843792 H 0.0 **** 0.06
15658 H 60.22703912947608 55.62645930903784 2.2987546253405498 H 0.0 **** 0.06
15659 H 59.20174753734145 55.93199934608032 0.876379305580059 H 0.0 **** 0.06
15660 H 60.94400934542101 56.29053859972328 0.8103297284798145 H 0.0 **** 0.06
15661 C 95.85009509179793 33.65873680686681 16.808930872349833 C 0.0 **** -0.24
15662 H 95.68164161159393 32.70745867842618 17.31336112700886 H 0.0 **** 0.06
15663 H 96.6081008248247 33.53047629203007 16.03562035512789 H 0.0 **** 0.06
15664 H 96.18978214511742 34.3989751110787 17.53258579782492 H 0.0 **** 0.06
15665 H 94.91920019568289 33.99690969649072 16.352159127943224 H 0.0 **** 0.06
15666 C 40.99780219548276 82.62158105506717 32.907600190035055 C 0.0 **** -0.24
15667 H 41.55945046266221 81.69788597292415 33.04457148142416 H 0.0 **** 0.06
15668 H 40.29408296886507 82.49998163306748 32.08404363865603 H 0.0 **** 0.06
15669 H 41.687675881348014 83.4351899447538 32.68064534934058 H 0.0 **** 0.06
15670 H 40.45268082992199 82.85346500410662 33.82247125993652 H 0.0 **** 0.06
15671 C 11.168022546515829 18.96502288295457 77.95680170577043 C 0.0 **** -0.24
15672 H 10.957853968035323 18.836953668234987 79.01901686421678 H 0.0 **** 0.06
15673 H 10.8825461912499 18.06064092752726 77.42001585315288 H 0.0 **** 0.06
15674 H 12.232190337081278 19.150747257429714 77.81735699597584 H 0.0 **** 0.06
15675 H 10.597280274974793 19.81109039666399 77.5737565555438 H 0.0 **** 0.06
15676 C 42.06883924393776 115.35548584934571 97.81616427681212 C 0.0 **** -0.24
15677 H 41.03818674299032 115.69268414357481 97.933050428613 H 0.0 **** 0.06
15678 H 42.27325692356254 114.55781496012128 98.53050322485439 H 0.0 **** 0.06
15679 H 42.74698909331073 116.18946155881429 97.99855639337599 H 0.0 **** 0.06
15680 H 42.215240924548056 114.98300397212103 96.80219516241266 H 0.0 **** 0.06
15681 C 54.622138936389746 62.42424175507169 96.40390087681895 C 0.0 **** -0.24
15682 H 55.06653935027987 61.53482199738282 96.84996621793398 H 0.0 **** 0.06
15683 H 54.01130060580931 62.93720768994699 97.14716938279156 H 0.0 **** 0.06
15684 H 53.99857880201321 62.13399215804952 95.55797799857596 H 0.0 **** 0.06
15685 H 55.41327353318778 63.09066809047886 96.05969517421728 H 0.0 **** 0.06
15686 C 17.504616512150136 94.27124387813404 11.582786010127258 C 0.0 **** -0.24
15687 H 18.07354275981595 94.77805900971018 12.363156423237069 H 0.0 **** 0.06
15688 H 16.741742910582303 93.64129068465391 12.041955351852515 H 0.0 **** 0.06
15689 H 18.17522509107704 93.65380629798824 10.98648371034433 H 0.0 **** 0.06
15690 H 17.02677587202686 95.01234809544292 10.943060019768232 H 0.0 **** 0.06
15691 C 92.31408520042754 43.62168597157449 68.30923271066438 C 0.0 **** -0.24
15692 H 91.85540682302457 43.10471795114921 67.46662797597989 H 0.0 **** 0.06
15693 H 92.94843141716427 42.92694909678863 68.8601130335983 H 0.0 **** 0.06
15694 H 91.53444095910567 44.00294402122296 68.96989510572068 H 0.0 **** 0.06
15695 H 92.91633433430604 44.45240276257539 67.94201054072502 H 0.0 **** 0.06
15696 C 66.38672775146591 97.9900152911304 94.90720830133829 C 0.0 **** -0.24
15697 H 66.69048682099884 96.98972385035512 94.59824871331297 H 0.0 **** 0.06
15698 H 66.1423955740571 97.98292442116717 95.96953267315489 H 0.0 **** 0.06
15699 H 65.51163424205663 98.29693617471021 94.33433267845427 H 0.0 **** 0.06
15700 H 67.20393602869063 98.68902570604865 94.72599932627581 H 0.0 **** 0.06
15701 C 88.46868165424695 28.22158372145973 22.549019173429144 C 0.0 **** -0.24
15702 H 89.10695450151258 28.90361425219202 21.98504769812294 H 0.0 **** 0.06
15703 H 87.87393726985721 28.790928036581448 23.264102235463156 H 0.0 **** 0.06
15704 H 89.08933560896804 27.501421815870223 23.082322146526792 H 0.0 **** 0.06
15705 H 87.80647132419978 27.693902074280956 21.862450075616152 H 0.0 **** 0.06
15706 C 51.544293642788716 86.8969140475329 67.85800199087424 C 0.0 **** -0.24
15707 H 51.42213202992457 86.38293208594271 68.81116494138476 H 0.0 **** 0.06
15708 H 52.59696926793805 87.13498454781967 67.70722405112983 H 0.0 **** 0.06
15709 H 50.96008450368549 87.81689466605474 67.86399153217434 H 0.0 **** 0.06
15710 H 51.19766419330364 86.25099595611317 67.0508425012976 H 0.0 **** 0.06
15711 C 95.5570503426195 30.710310945568438 52.33550333479678 C 0.0 **** -0.24
15712 H 95.31581109922024 30.92734443654541 53.376298065286846 H 0.0 **** 0.06
15713 H 96.63119628108763 30.553083516361937 52.236900089909795 H 0.0 **** 0.06
15714 H 95.25396959039801 31.55060938532756 51.71019525616424 H 0.0 **** 0.06
15715 H 95.0266113095953 29.81243376769487 52.01943447735766 H 0.0 **** 0.06
15716 C 28.58662108768199 42.59371022103152 42.035603347075664 C 0.0 **** -0.24
15717 H 28.28371658164113 42.227541572938314 41.05466352534546 H 0.0 **** 0.06
15718 H 27.700468828057595 42.78051915867571 42.64298560158568 H 0.0 **** 0.06
15719 H 29.149131640702407 43.520315787076534 41.91851110852724 H 0.0 **** 0.06
15720 H 29.211987734356455 41.84810253739784 42.52529122714327 H 0.0 **** 0.06
15721 C 12.218761621401612 92.16614826508405 100.06176174781626 C 0.0 **** -0.24
15722 H 11.423244263453256 91.49630146340671 99.73518870126435 H 0.0 **** 0.06
15723 H 11.83060368186527 93.18204356192804 100.14085512951382 H 0.0 **** 0.06
15724 H 13.032934601882715 92.14342102203334 99.33710775589557 H 0.0 **** 0.06
15725 H 12.590200883196516 91.84186334263279 101.03446097392404 H 0.0 **** 0.06
15726 C 34.60505825104872 99.56880493002893 81.43137800613204 C 0.0 **** -0.24
15727 H 34.86640329964584 99.07911741502971 80.49351104654991 H 0.0 **** 0.06
15728 H 34.980835895020675 100.59238827807775 81.42431429590917 H 0.0 **** 0.06
15729 H 35.05137067230825 99.0235254728033 82.26334743112449 H 0.0 **** 0.06
15730 H 33.52092773035582 99.58085987648639 81.54459575152845 H 0.0 **** 0.06
15731 C 0.9367674776022028 107.44515268174388 71.64224991622596 C 0.0 **** -0.24
15732 H 1.5189234699864045 107.30912092800463 72.55332471037322 H 0.0 **** 0.06
15733 H 0.45160073573066484 106.50467853488271 71.37673476580267 H 0.0 **** 0.06
15734 H 1.596905742926097 107.75539961536913 70.8323685323662 H 0.0 **** 0.06
15735 H 0.17871098036744115 108.21137019330396 71.80693953116675 H 0.0 **** 0.06
15736 C 103.38978832290852 24.5349238124778 4.985379336297456 C 0.0 **** -0.24
15737 H 104.06268081136257 23.69941833590761 4.792444501927861 H 0.0 **** 0.06
15738 H 102.3969462707451 24.153274692919396 5.225970753074591 H 0.0 **** 0.06
15739 H 103.3302052077945 25.166625228045675 4.0994923865558235 H 0.0 **** 0.06
15740 H 103.76728848529825 25.11961175691512 5.824142221173304 H 0.0 **** 0.06
15741 C 3.3833412142396195 14.806573871817744 47.71209922940335 C 0.0 **** -0.24
15742 H 3.6019324906496593 15.250968627149746 48.6827756297198 H 0.0 **** 0.06
15743 H 3.2158182687154575 15.596955765484612 46.9799447923653 H 0.0 **** 0.06
15744 H 2.489776741258286 14.186779943883202 47.789420641916706 H 0.0 **** 0.06
15745 H 4.22620045722352 14.190758376323085 47.396673826523624 H 0.0 **** 0.06
15746 C 50.08650661792342 112.99716486350178 110.99884151248375 C 0.0 **** -0.24
15747 H 50.37573463446438 112.89355999188251 109.95217115287676 H 0.0 **** 0.06
15748 H 49.04563597277354 113.3165013803702 111.0562355549938 H 0.0 **** 0.06
15749 H 50.72255955352364 113.7401230712162 111.47902300236626 H 0.0 **** 0.06
15750 H 50.20095377480689 112.03817957067923 111.50374010247009 H 0.0 **** 0.06
15751 C 13.438539059109416 72.84288946962658 64.75383454854898 C 0.0 **** -0.24
15752 H 12.78747018222856 72.32450815937375 64.04996901798387 H 0.0 **** 0.06
15753 H 12.84371905574909 73.23069320589107 65.58044566930744 H 0.0 **** 0.06
15754 H 13.938475923800524 73.6683272923645 64.24667470333645 H 0.0 **** 0.06
15755 H 14.185220164291309 72.14760516820752 65.1387860786412 H 0.0 **** 0.06
15756 C 33.344699349879505 91.6688028316629 13.012282760945538 C 0.0 **** -0.24
15757 H 34.14391457089911 91.61619502787028 12.271847687726876 H 0.0 **** 0.06
15758 H 32.79022662540703 92.5978316662809 12.882240694529798 H 0.0 **** 0.06
15759 H 33.77464046590862 91.63871275192834 14.012708016953326 H 0.0 **** 0.06
15760 H 32.671103372985655 90.82190863089222 12.880463793767944 H 0.0 **** 0.06
15761 C 28.2514619652828 35.50697902076752 65.78682931139882 C 0.0 **** -0.24
15762 H 27.626266886650228 36.40032458605259 65.79005680348331 H 0.0 **** 0.06
15763 H 27.789818821326236 34.74336006405551 65.16036599737878 H 0.0 **** 0.06
15764 H 28.351227217730838 35.12987662330357 66.8055723300542 H 0.0 **** 0.06
15765 H 29.236714446347662 35.75445513983553 65.39295799198221 H 0.0 **** 0.06
15766 C 74.17699311434706 11.021847858468384 42.61160087311947 C 0.0 **** -0.24
15767 H 74.94437310249998 11.75072871184297 42.87415422905062 H 0.0 **** 0.06
15768 H 74.06833313645151 10.301821395010968 43.423171264471975 H 0.0 **** 0.06
15769 H 74.46817914787758 10.501290115752443 41.699362485552925 H 0.0 **** 0.06
15770 H 73.22857646874002 11.535063269738188 42.45093850702909 H 0.0 **** 0.06
15771 C 12.243461597012214 31.73581536283504 109.54600415177268 C 0.0 **** -0.24
15772 H 12.166417739982222 30.6684519115544 109.33874329144605 H 0.0 **** 0.06
15773 H 12.01721830790693 31.918172680498408 110.59694343787653 H 0.0 **** 0.06
15774 H 11.533315708462922 32.27921954432816 108.9218396480447 H 0.0 **** 0.06
15775 H 13.254911644032688 32.0761211930386 109.32711326187537 H 0.0 **** 0.06
15776 C 33.3460842712484 9.94007839142327 113.8768192711875 C 0.0 **** -0.24
15777 H 32.40427649863932 10.445602532159754 114.08866114305633 H 0.0 **** 0.06
15778 H 33.42327686114223 9.042502056655422 114.49103472579394 H 0.0 **** 0.06
15779 H 34.17685113967727 10.608741142740456 114.10566458498486 H 0.0 **** 0.06
15780 H 33.38161800799713 9.664458052982852 112.82339282837266 H 0.0 **** 0.06
15781 C 95.90873318578855 68.29707126408795 31.203911496122288 C 0.0 **** -0.24
15782 H 94.84792208941361 68.41473693236844 30.98263979930448 H 0.0 **** 0.06
15783 H 96.43683124895195 69.21624990276604 30.94620092436071 H 0.0 **** 0.06
15784 H 96.31180150978034 67.47019399481115 30.61915559541231 H 0.0 **** 0.06
15785 H 96.03746359945319 68.08895888526393 32.265476001243144 H 0.0 **** 0.06
15786 C 73.02674713690561 3.5228426539439965 13.270228152427507 C 0.0 **** -0.24
15787 H 71.95243621732351 3.442817074605358 13.105639324103834 H 0.0 **** 0.06
15788 H 73.55354890170332 2.9170686201191245 12.531241403049535 H 0.0 **** 0.06
15789 H 73.2685287744078 3.1667122753658816 14.271282749971732 H 0.0 **** 0.06
15790 H 73.33255235174539 4.563696992176418 13.170790251034362 H 0.0 **** 0.06
15791 C 43.00368350552304 13.499219613888016 38.33661770857853 C 0.0 **** -0.24
15792 H 42.58096909242729 13.831562716056226 37.38870784098364 H 0.0 **** 0.06
15793 H 43.92440999537812 12.946994571649384 38.14900167615072 H 0.0 **** 0.06
15794 H 42.28956191925733 12.853474281503495 38.84689198414874 H 0.0 **** 0.06
15795 H 43.22108716307569 14.36662967836611 38.961485773718586 H 0.0 **** 0.06
15796 C 22.191534661855712 74.47934059644038 97.707398445981 C 0.0 **** -0.24
15797 H 22.147897774632924 75.01181620699911 98.65794994400952 H 0.0 **** 0.06
15798 H 21.178957676830464 74.26598005563217 97.36462491140415 H 0.0 **** 0.06
15799 H 22.734730065310345 73.54367501822965 97.8397057768314 H 0.0 **** 0.06
15800 H 22.702853159673225 75.09544695246367 96.96901995233107 H 0.0 **** 0.06
15801 C 62.97976786083758 5.034457295798333 102.56496229365428 C 0.0 **** -0.24
15802 H 63.30704531816215 4.284003834678501 101.84500211909841 H 0.0 **** 0.06
15803 H 62.50661736513102 4.540474857533596 103.4145201790106 H 0.0 **** 0.06
15804 H 62.26536163157775 5.70584767530724 102.0905836026136 H 0.0 **** 0.06
15805 H 63.841878985394956 5.605353700039458 102.90990469609653 H 0.0 **** 0.06
15806 C 49.1269733764986 111.87778341013406 1.7921844516881151 C 0.0 **** -0.24
15807 H 49.45744863135229 112.35512151495075 2.714799758357202 H 0.0 **** 0.06
15808 H 49.020704826129446 110.80550263074876 1.9565087599966375 H 0.0 **** 0.06
15809 H 49.86414518540195 112.05408327205063 1.0075993707179975 H 0.0 **** 0.06
15810 H 48.16756928519078 112.29664321050872 1.4900640142967632 H 0.0 **** 0.06
15811 C 37.80149788758289 107.23156851808206 71.58953550471608 C 0.0 **** -0.24
15812 H 38.094710886749155 106.3031066165089 72.07956427010667 H 0.0 **** 0.06
15813 H 37.44299814785958 107.9389370211094 72.33721610578318 H 0.0 **** 0.06
15814 H 37.00853965368013 107.0283803620591 70.87064031272341 H 0.0 **** 0.06
15815 H 38.66210217188984 107.65520791989873 71.07086842906703 H 0.0 **** 0.06
15816 C 100.71462155359436 99.201471052914 0.40336778985965793 C 0.0 **** -0.24
15817 H 99.81575558774331 98.58598874190352 0.363592557988909 H 0.0 **** 0.06
15818 H 101.3543397574363 98.96436932313861 -0.4468227497634416 H 0.0 **** 0.06
15819 H 101.25195976919869 99.00067315987667 1.330227220064046 H 0.0 **** 0.06
15820 H 100.43643109999938 100.25485298673766 0.3664741311491184 H 0.0 **** 0.06
15821 C 54.33228139718981 54.526145537461616 84.94713895145546 C 0.0 **** -0.24
15822 H 53.278708545176656 54.80376656242798 84.96590936816096 H 0.0 **** 0.06
15823 H 54.869818376785105 55.08533159822052 85.71382439887859 H 0.0 **** 0.06
15824 H 54.7512173983075 54.75662450006919 83.96720799785953 H 0.0 **** 0.06
15825 H 54.429280272470486 53.457475085974444 85.14134322468641 H 0.0 **** 0.06
15826 C 95.2629672003524 79.03017410807632 61.043562504683564 C 0.0 **** -0.24
15827 H 94.92425645306973 78.45737311359477 60.181343565521786 H 0.0 **** 0.06
15828 H 94.3992949719475 79.37168436218826 61.614213525868934 H 0.0 **** 0.06
15829 H 95.83929772318352 79.89088661832284 60.70551870695141 H 0.0 **** 0.06
15830 H 95.88928472416072 78.3997331377808 61.67598339814623 H 0.0 **** 0.06
15831 C 53.113518487118824 57.13644201275747 24.675277505412204 C 0.0 **** -0.24
15832 H 52.26891473303546 57.25791507135071 23.996097542268863 H 0.0 **** 0.06
15833 H 53.8002953614275 56.393255318558204 24.269854724781446 H 0.0 **** 0.06
15834 H 52.7521185338358 56.80537243864734 25.64842935175409 H 0.0 **** 0.06
15835 H 53.631176333036024 58.08942955983622 24.784179474176376 H 0.0 **** 0.06
15836 C 106.45408601496986 56.06687979243998 102.644030710099 C 0.0 **** -0.24
15837 H 106.93960975429218 55.806671226002095 101.70276197586935 H 0.0 **** 0.06
15838 H 107.17266512069149 56.55910462554783 103.29922787622769 H 0.0 **** 0.06
15839 H 106.08474317771247 55.16056040937269 103.1246393232183 H 0.0 **** 0.06
15840 H 105.61999071664961 56.739896354541656 102.44751799290547 H 0.0 **** 0.06
15841 C 59.429075358877185 41.52562401368931 88.80081334045555 C 0.0 **** -0.24
15842 H 60.05557054435343 41.788402552434576 89.65363678007009 H 0.0 **** 0.06
15843 H 59.234053630250855 40.453731167577274 88.81023393538796 H 0.0 **** 0.06
15844 H 59.9420383143252 41.794877433149765 87.87700155723066 H 0.0 **** 0.06
15845 H 58.48591898383114 42.06820239093747 88.86336968659081 H 0.0 **** 0.06
15846 C 91.46967437869472 41.40206226426182 28.49499432086349 C 0.0 **** -0.24
15847 H 90.85593119067073 40.55632593838348 28.804094443392295 H 0.0 **** 0.06
15848 H 91.39126202042968 41.53204168879187 27.414948725887605 H 0.0 **** 0.06
15849 H 92.50913375612987 41.214149634105915 28.764227695365257 H 0.0 **** 0.06
15850 H 91.12168955211189 42.30497272966199 28.9957265322898 H 0.0 **** 0.06
15851 C 60.89305369539275 76.93091983527185 84.30185165363105 C 0.0 **** -0.24
15852 H 59.862618510232906 76.97419181525689 84.65593140800573 H 0.0 **** 0.06
15853 H 60.95433864238318 77.375495135951 83.30786091606139 H 0.0 **** 0.06
15854 H 61.21716209232517 75.89170824758705 84.25713571832648 H 0.0 **** 0.06
15855 H 61.53581739516508 77.48410182731573 84.98719033359642 H 0.0 **** 0.06
15856 C 82.80554185710906 36.01822785979755 16.449489383617845 C 0.0 **** -0.24
15857 H 82.9835359979968 35.91693428122343 17.51972590327472 H 0.0 **** 0.06
15858 H 81.84096331418937 36.49860568272342 16.28627504760874 H 0.0 **** 0.06
15859 H 82.80286301940106 35.03139375344546 15.987478800393546 H 0.0 **** 0.06
15860 H 83.59494782790796 36.62451600944604 16.006163994674694 H 0.0 **** 0.06
15861 C 15.835635950071776 81.45154337119033 76.00010787266486 C 0.0 **** -0.24
15862 H 16.594126678382878 82.21530559111356 76.1740609870154 H 0.0 **** 0.06
15863 H 14.967909326362758 81.65207246564866 76.62763641988792 H 0.0 **** 0.06
15864 H 16.245012870356277 80.4719438333989 76.24617456481307 H 0.0 **** 0.06
15865 H 15.538261800367053 81.46764678727817 74.95171537316655 H 0.0 **** 0.06
15866 C 96.81543251481617 60.38859788888361 63.12410044054994 C 0.0 **** -0.24
15867 H 96.95764007643018 61.06042236091217 62.277248931764916 H 0.0 **** 0.06
15868 H 95.79134008522851 60.015256869747034 63.122167549688925 H 0.0 **** 0.06
15869 H 97.00355355172553 60.92947421580523 64.05115156448477 H 0.0 **** 0.06
15870 H 97.50853007646938 59.55167370815839 63.04325987062521 H 0.0 **** 0.06
15871 C 53.06438073809351 70.58561547796637 57.646336976573195 C 0.0 **** -0.24
15872 H 52.6909750430204 70.01218125039992 56.797130875562885 H 0.0 **** 0.06
15873 H 52.24697310889554 71.15800894710964 58.08559097396349 H 0.0 **** 0.06
15874 H 53.84561528801959 71.26703381473544 57.30781777786102 H 0.0 **** 0.06
15875 H 53.47428853271768 69.90446143359276 58.39273725730396 H 0.0 **** 0.06
15876 C 38.28466205784625 15.960816337146973 27.631635576071915 C 0.0 **** -0.24
15877 H 38.19088750910532 16.88691940608791 28.19853766534834 H 0.0 **** 0.06
15878 H 39.25256735859239 15.504580091078441 27.840068754053902 H 0.0 **** 0.06
15879 H 38.206896840484234 16.178800333249917 26.565912735783456 H 0.0 **** 0.06
15880 H 37.489105023184436 15.275027898841234 27.92171786552302 H 0.0 **** 0.06
15881 C 43.82173778627188 11.248569388062663 100.5666366333559 C 0.0 **** -0.24
15882 H 43.70622193875687 10.533142395806635 101.38071577606706 H 0.0 **** 0.06
15883 H 44.63723256949362 10.930361042554239 99.91684875655898 H 0.0 **** 0.06
15884 H 44.04618185157756 12.232414669190405 100.97838760786277 H 0.0 **** 0.06
15885 H 42.89614515305885 11.297747845181163 99.99239943887727 H 0.0 **** 0.06
15886 C 94.36893089016206 69.0974119339369 4.581992828006221 C 0.0 **** -0.24
15887 H 94.77115371153332 69.4313613235331 5.537525172563861 H 0.0 **** 0.06
15888 H 93.3997922690296 68.62338775053544 4.740772611601017 H 0.0 **** 0.06
15889 H 95.05434569611123 68.38027573423666 4.129237017711418 H 0.0 **** 0.06
15890 H 94.24924141777484 69.95455815874593 3.918544717465849 H 0.0 **** 0.06
15891 C 9.093313772229592 53.645162957741206 111.49465685951031 C 0.0 **** -0.24
15892 H 8.233138932833867 53.262197363381745 112.04397021730632 H 0.0 **** 0.06
15893 H 8.824813981374035 54.58279902350807 111.00655123148586 H 0.0 **** 0.06
15894 H 9.399265873379292 52.91725689228582 110.74333295023249 H 0.0 **** 0.06
15895 H 9.91711070168111 53.819138242746334 112.18765385310249 H 0.0 **** 0.06
15896 C 53.186266390481705 73.68754589146084 108.54176423188778 C 0.0 **** -0.24
15897 H 53.30146695772285 73.92884087527972 107.48429451263576 H 0.0 **** 0.06
15898 H 52.68611075799393 74.51260267206095 109.04906415630654 H 0.0 **** 0.06
15899 H 54.16845599238633 73.52785741845196 108.9865526396797 H 0.0 **** 0.06
15900 H 52.589742788811066 72.78156656496668 108.6444947288268 H 0.0 **** 0.06
15901 C 76.6569899607257 47.800316030011885 76.21117756508943 C 0.0 **** -0.24
15902 H 77.06739068677012 47.658597298764164 75.21190005577972 H 0.0 **** 0.06
15903 H 77.46736755475379 48.00361049944914 76.91150398211646 H 0.0 **** 0.06
15904 H 76.12877632681017 46.89798875824894 76.51803317241364 H 0.0 **** 0.06
15905 H 75.9632208869032 48.64191293703368 76.20235928603537 H 0.0 **** 0.06
15906 C 20.415625854592122 32.77639536675129 101.4818292763691 C 0.0 **** -0.24
15907 H 20.80524309449467 33.46089634685883 102.23558944458915 H 0.0 **** 0.06
15908 H 19.337537236510315 32.90894277209199 101.3940475038462 H 0.0 **** 0.06
15909 H 20.63368051660646 31.749712051946773 101.77537666983065 H 0.0 **** 0.06
15910 H 20.887254122743514 32.98782345647109 100.5217404578996 H 0.0 **** 0.06
15911 C 88.85329784758773 95.61741974991867 40.1025760247706 C 0.0 **** -0.24
15912 H 88.11272241095452 96.41471355756647 40.156410028401595 H 0.0 **** 0.06
15913 H 88.66994445503491 94.89839118112826 40.90176566078933 H 0.0 **** 0.06
15914 H 89.85138324301033 96.04024245348185 40.21590758076651 H 0.0 **** 0.06
15915 H 88.77798354304036 95.11615862837695 39.13749747378259 H 0.0 **** 0.06
15916 C 104.16451836402103 36.81346037812341 32.77335180313605 C 0.0 **** -0.24
15917 H 103.49518573516701 36.254388353443375 32.120382591762336 H 0.0 **** 0.06
15918 H 104.25680743152125 36.29567928108622 33.72791034000136 H 0.0 **** 0.06
15919 H 103.76181932383588 37.81225406595081 32.938149068625535 H 0.0 **** 0.06
15920 H 105.14651290112701 36.89083416032611 32.30539705308678 H 0.0 **** 0.06
15921 C 50.81412525390401 76.86224152389156 86.12427825836323 C 0.0 **** -0.24
15922 H 51.13743945374105 77.55914386191807 85.35082843312443 H 0.0 **** 0.06
15923 H 50.2516087385076 77.40046268105493 86.88662835084449 H 0.0 **** 0.06
15924 H 51.68746389135225 76.3941199855779 86.57793824005608 H 0.0 **** 0.06
15925 H 50.18029428002123 76.09467574853272 85.67816982531215 H 0.0 **** 0.06
15926 C 107.96927692426335 9.288827108827775 9.985376056998575 C 0.0 **** -0.24
15927 H 107.58781138769403 9.981008447474721 10.735726353600626 H 0.0 **** 0.06
15928 H 109.05890088618132 9.305710847312838 9.996470721517682 H 0.0 **** 0.06
15929 H 107.6104554349025 9.586642363387398 9.000460460050988 H 0.0 **** 0.06
15930 H 107.61922467924745 8.281334647675578 10.209902033642663 H 0.0 **** 0.06
15931 C 102.16670281886076 106.78562227728929 40.79139148117804 C 0.0 **** -0.24
15932 H 103.24417855577616 106.7697656029172 40.62823774827322 H 0.0 **** 0.06
15933 H 101.70979208503331 105.93983785089434 40.27855351092708 H 0.0 **** 0.06
15934 H 101.7543278356344 107.71550136166019 40.39890663575329 H 0.0 **** 0.06
15935 H 101.95978907233258 106.71921001080977 41.85967266427778 H 0.0 **** 0.06
15936 C 44.64158079181934 109.37199097183418 2.1699248344293665 C 0.0 **** -0.24
15937 H 44.310074315051054 108.75526231977071 3.0060563142753836 H 0.0 **** 0.06
15938 H 44.070765266058544 109.111855219826 1.2779721250213925 H 0.0 **** 0.06
15939 H 45.70129387817113 109.19642584650877 1.9870626807737892 H 0.0 **** 0.06
15940 H 44.483190314030935 110.42351691746111 2.4090381732212336 H 0.0 **** 0.06
15941 C 39.07264300309123 51.492852214896544 78.69277059278376 C 0.0 **** -0.24
15942 H 38.70222576203804 51.04459841102278 77.77040884496535 H 0.0 **** 0.06
15943 H 38.581166008648836 52.45275511345418 78.8514001763122 H 0.0 **** 0.06
15944 H 40.148928176054255 51.644037830324976 78.61607225543527 H 0.0 **** 0.06
15945 H 38.85679731188225 50.83008014898588 79.53057806582638 H 0.0 **** 0.06
15946 C 62.3717901906449 95.6456883662172 82.09816063664984 C 0.0 **** -0.24
15947 H 61.50080652970712 95.92157837046398 82.69253317690476 H 0.0 **** 0.06
15948 H 62.680380069369676 96.49644514709325 81.48988044396201 H 0.0 **** 0.06
15949 H 62.11741735308408 94.80824248119222 81.44851734934613 H 0.0 **** 0.06
15950 H 63.18655828863638 95.35743229015964 82.76137467502426 H 0.0 **** 0.06
15951 C 20.823331812020882 14.294760743780785 76.00103498139673 C 0.0 **** -0.24
15952 H 20.718712690454808 13.494217591140128 75.26839176572179 H 0.0 **** 0.06
15953 H 20.714108253819546 15.2581166281133 75.50481315441519 H 0.0 **** 0.06
15954 H 21.808088814771963 14.233774724099277 76.46581232980586 H 0.0 **** 0.06
15955 H 20.054066348732803 14.189651142081146 76.76583309317012 H 0.0 **** 0.06
15956 C 6.1044058807750385 79.3483105029647 12.18821731885555 C 0.0 **** -0.24
15957 H 5.202706983359972 78.85598445587289 12.552389961839623 H 0.0 **** 0.06
15958 H 6.274074008594052 79.07154651542174 11.147032391745256 H 0.0 **** 0.06
15959 H 6.95751477231102 79.03488646116091 12.790475718415024 H 0.0 **** 0.06
15960 H 5.983701398969254 80.42859296526979 12.262032783162852 H 0.0 **** 0.06
15961 C 73.38361851918214 31.90945119705536 26.015372134299383 C 0.0 **** -0.24
15962 H 72.77913680981187 32.72573865054733 25.619556233926886 H 0.0 **** 0.06
15963 H 72.73215333466116 31.0986761538731 26.34023741597585 H 0.0 **** 0.06
15964 H 73.96740696609574 32.26895062405163 26.863263527470963 H 0.0 **** 0.06
15965 H 74.05640016482927 31.545666424972097 25.238757010069037 H 0.0 **** 0.06
15966 C 58.03248984599597 8.60195744650025 23.39822266559841 C 0.0 **** -0.24
15967 H 58.35234421470719 9.377347862226443 24.09498050851454 H 0.0 **** 0.06
15968 H 56.999231916419944 8.784069440701643 23.101770546419402 H 0.0 **** 0.06
15969 H 58.10554808598465 7.627358382142276 23.881350743206724 H 0.0 **** 0.06
15970 H 58.67223066222607 8.618978424013264 22.516940405897486 H 0.0 **** 0.06
15971 C 59.30754337197381 39.41041817446717 17.008395357918545 C 0.0 **** -0.24
15972 H 58.39978558156602 39.33036771512178 17.60621243348396 H 0.0 **** 0.06
15973 H 59.09561639621148 39.10687062121198 15.983243960532548 H 0.0 **** 0.06
15974 H 60.076675673702724 38.760146682192754 17.42775578374423 H 0.0 **** 0.06
15975 H 59.65920454826481 40.44233048154081 17.017339035317775 H 0.0 **** 0.06
15976 C 6.186710242336188 103.75164033159307 28.13923588195064 C 0.0 **** -0.24
15977 H 6.622134509974277 103.75931578072813 27.14026625287204 H 0.0 **** 0.06
15978 H 6.591830071690909 102.91280654033135 28.70621419957797 H 0.0 **** 0.06
15979 H 5.10461734892791 103.64969497073673 28.063106969372598 H 0.0 **** 0.06
15980 H 6.428561938272084 104.68550608473879 28.647928459273373 H 0.0 **** 0.06
15981 C 99.10667268025134 15.417352878852448 36.97621052020392 C 0.0 **** -0.24
15982 H 99.75819065125035 14.642697167602993 36.572049159014824 H 0.0 **** 0.06
15983 H 98.40818548934092 15.743544623613804 36.20476433379933 H 0.0 **** 0.06
15984 H 99.70988555163905 16.26414219174088 37.30289020898309 H 0.0 **** 0.06
15985 H 98.55203062998766 15.017532372944302 37.82558520774549 H 0.0 **** 0.06
15986 C 67.81890687972259 49.5278871710471 94.62609883025807 C 0.0 **** -0.24
15987 H 66.90314155000218 49.41748356530201 94.04573908654116 H 0.0 **** 0.06
15988 H 68.44600608429766 48.647192518728104 94.48580593286546 H 0.0 **** 0.06
15989 H 67.56799521852679 49.631154948801964 95.68262888631827 H 0.0 **** 0.06
15990 H 68.35676384151463 50.41471280606186 94.29164598190073 H 0.0 **** 0.06
15991 C 93.74950722754588 20.273431483376157 62.36142896717212 C 0.0 **** -0.24
15992 H 94.72118416302413 19.869760374592033 62.07420395340877 H 0.0 **** 0.06
15993 H 92.97579949189748 19.530295969435656 62.165519377424744 H 0.0 **** 0.06
15994 H 93.5448205529203 21.172765262359263 61.78116296457813 H 0.0 **** 0.06
15995 H 93.75862218917064 20.519600925765474 63.42294441352158 H 0.0 **** 0.06
15996 C 48.06192581995964 69.5192077053807 23.880129005506376 C 0.0 **** -0.24
15997 H 47.587605565711186 69.53155934698187 24.861342680853568 H 0.0 **** 0.06
15998 H 49.126565056533025 69.72877975517704 23.98911740666395 H 0.0 **** 0.06
15999 H 47.6047836363137 70.27919730151169 23.245459434923305 H 0.0 **** 0.06
16000 H 47.929699635286795 68.53826854976715 23.42498057476925 H 0.0 **** 0.06
16001 C 85.90273223365621 76.0949626588449 0.8400965128925577 C 0.0 **** -0.24
16002 H 85.9691547482025 77.17863924171857 0.9346567847839111 H 0.0 **** 0.06
16003 H 85.72640801942129 75.65559780511761 1.8227062722109224 H 0.0 **** 0.06
16004 H 86.83588071608928 75.70851898058447 0.43072171630257117 H 0.0 **** 0.06
16005 H 85.07910025117188 75.83873605475412 0.1737701410608281 H 0.0 **** 0.06
16006 C 36.519251901031396 18.046227696892856 33.77401254535374 C 0.0 **** -0.24
16007 H 37.418103678231034 17.477655551324716 34.00869243074828 H 0.0 **** 0.06
16008 H 36.25559497219655 18.67637014498075 34.624658295339316 H 0.0 **** 0.06
16009 H 35.699100270827955 17.360142545264324 33.562768573443634 H 0.0 **** 0.06
16010 H 36.702752779435286 18.672504922901396 32.90081106028862 H 0.0 **** 0.06
16011 C 69.57214017292003 13.340586077991585 65.5325160017908 C 0.0 **** -0.24
16012 H 68.96280629894669 14.140535708627795 65.11156185932131 H 0.0 **** 0.06
16013 H 69.16194579455588 12.375883483596713 65.23211112463288 H 0.0 **** 0.06
16014 H 69.56815230007481 13.415242731938353 66.61981495714114 H 0.0 **** 0.06
16015 H 70.59412376190375 13.43142192448041 65.16512530674488 H 0.0 **** 0.06
16016 C 49.707810879104045 109.6691547863559 109.32270095335763 C 0.0 **** -0.24
16017 H 49.22367016005518 108.85904548468315 108.7782653010868 H 0.0 **** 0.06
16018 H 49.26568983798953 110.62066958185596 109.02669224720378 H 0.0 **** 0.06
16019 H 50.77355232203524 109.67632442845215 109.09223755825515 H 0.0 **** 0.06
16020 H 49.569445778456014 109.52139321330375 110.39329897171253 H 0.0 **** 0.06
16021 C 80.81235528053062 33.855112118183854 90.65036086058916 C 0.0 **** -0.24
16022 H 81.0335071585892 34.79317715425003 90.13985281157179 H 0.0 **** 0.06
16023 H 80.28228654054664 33.18841094695745 89.96920940252573 H 0.0 **** 0.06
16024 H 80.18911536463855 34.05461672066599 91.52247468075902 H 0.0 **** 0.06
16025 H 81.74327106713395 33.385819879347366 90.96746195894764 H 0.0 **** 0.06
16026 C 27.55057722028117 71.38319822803618 15.81071377388821 C 0.0 **** -0.24
16027 H 27.910366749550263 70.57672751299788 15.170830892206595 H 0.0 **** 0.06
16028 H 27.824742152191845 71.17483360263468 16.844940699226697 H 0.0 **** 0.06
16029 H 26.46586944645024 71.45517150036801 15.7281215499454 H 0.0 **** 0.06
16030 H 28.00244882269581 72.32419856309994 15.496892198190153 H 0.0 **** 0.06
16031 C 47.84509791345894 96.1568424514534 5.62444595349254 C 0.0 **** -0.24
16032 H 48.71344657227533 96.71886978504037 5.968353559357709 H 0.0 **** 0.06
16033 H 46.93612042246656 96.69880577542253 5.885521099233316 H 0.0 **** 0.06
16034 H 47.83516549531498 95.17676183547084 6.101235089973642 H 0.0 **** 0.06
16035 H 47.89822103475635 96.0350102234973 4.542327463112642 H 0.0 **** 0.06
16036 C 85.0650492336558 104.22246153934759 96.9588270543042 C 0.0 **** -0.24
16037 H 84.36293019760969 103.82140632305561 96.22751169324775 H 0.0 **** 0.06
16038 H 85.03819244881255 105.31217954625527 96.9275861504671 H 0.0 **** 0.06
16039 H 86.07171144697922 103.87690646825632 96.72289389741752 H 0.0 **** 0.06
16040 H 84.7863443656285 103.8802403072259 97.95553402500208 H 0.0 **** 0.06
16041 C 44.5550612991362 17.272955449773775 103.8749862787466 C 0.0 **** -0.24
16042 H 45.19557539365459 17.841123882036243 103.20043244020299 H 0.0 **** 0.06
16043 H 44.73796603522776 17.589965816556315 104.90220723723951 H 0.0 **** 0.06
16044 H 44.776848979041205 16.210801434781985 103.77813303811195 H 0.0 **** 0.06
16045 H 43.51038306137673 17.451241203473643 103.61911296528828 H 0.0 **** 0.06
16046 C 37.89706638863679 104.86766900494524 110.6151961000269 C 0.0 **** -0.24
16047 H 38.264320593258724 104.69163444017303 111.62654014049565 H 0.0 **** 0.06
16048 H 36.81298762778734 104.75275572404348 110.59794014648148 H 0.0 **** 0.06
16049 H 38.34948272598122 104.14695641439516 109.9336350948364 H 0.0 **** 0.06
16050 H 38.16044236524684 105.87860623470553 110.30331054929405 H 0.0 **** 0.06
16051 C 2.504715351470736 112.5038781685025 101.67643155879409 C 0.0 **** -0.24
16052 H 1.6358582051646806 112.99906454515897 102.11117783427619 H 0.0 **** 0.06
16053 H 2.7274365882620373 111.59867037140523 102.24018556207784 H 0.0 **** 0.06
16054 H 3.3621902981385574 113.17682325825487 101.7128493079868 H 0.0 **** 0.06
16055 H 2.292231058482429 112.24349131243875 100.63901277821088 H 0.0 **** 0.06
16056 C 30.71992963734283 76.66679179464154 112.58244602156174 C 0.0 **** -0.24
16057 H 29.89992659887892 76.8410497276351 111.88674804983606 H 0.0 **** 0.06
16058 H 30.54497076061594 77.23045212301474 113.4990228043776 H 0.0 **** 0.06
16059 H 31.656558451043793 76.99198201585796 112.1290352056447 H 0.0 **** 0.06
16060 H 30.779244164471322 75.60298822296477 112.81622455174113 H 0.0 **** 0.06
16061 C 11.1356761863602 90.96574843002605 16.992376976201683 C 0.0 **** -0.24
16062 H 11.249937569570022 90.25260398844438 16.175696546641575 H 0.0 **** 0.06
16063 H 12.120525143456774 91.27861187600263 17.340729685634244 H 0.0 **** 0.06
16064 H 10.591678635167938 90.49588493685252 17.81190826268002 H 0.0 **** 0.06
16065 H 10.581314018936553 91.83541969854224 16.63968586144904 H 0.0 **** 0.06
16066 C 94.88550685418042 32.78145355821173 109.4335413670944 C 0.0 **** -0.24
16067 H 94.54805618523629 33.491175991849516 108.677347118495 H 0.0 **** 0.06
16068 H 95.21805079620336 33.324916846755734 110.31814396434409 H 0.0 **** 0.06
16069 H 95.71170825090114 32.19310753738413 109.0362597539989 H 0.0 **** 0.06
16070 H 94.06235947136236 32.11867071326133 109.70183389829431 H 0.0 **** 0.06
16071 C 59.24698565524528 12.013513351949968 102.67937558644917 C 0.0 **** -0.24
16072 H 59.466367204401024 13.02050050074726 103.03640395856507 H 0.0 **** 0.06
16073 H 60.015388468767014 11.703699409091257 101.97202212762191 H 0.0 **** 0.06
16074 H 58.274618201909846 12.008124823996482 102.18623048744048 H 0.0 **** 0.06
16075 H 59.22951399264048 11.325045066318324 103.52418012498752 H 0.0 **** 0.06
16076 C 83.57169614684096 107.57362739979555 60.307237202344396 C 0.0 **** -0.24
16077 H 84.26649200901784 106.73748214303743 60.222552920476176 H 0.0 **** 0.06
16078 H 83.11075062767603 107.7605239115756 59.3371250954043 H 0.0 **** 0.06
16079 H 84.11148324631083 108.4629833494092 60.6310942469986 H 0.0 **** 0.06
16080 H 82.79860925188001 107.33109260702003 61.03650196445892 H 0.0 **** 0.06
16081 C 4.1602860984449155 35.223358270546726 77.64919571910042 C 0.0 **** -0.24
16082 H 4.141673500607427 35.39490086639549 78.72498529236273 H 0.0 **** 0.06
16083 H 3.5639354518109503 35.98633687735821 77.14861593520905 H 0.0 **** 0.06
16084 H 3.74763338796134 34.238286196529145 77.43075964494108 H 0.0 **** 0.06
16085 H 5.189480314263967 35.27384415692637 77.2917113420956 H 0.0 **** 0.06
16086 C 24.751011232787448 16.786602286952586 106.00154676277099 C 0.0 **** -0.24
16087 H 23.797177182400787 17.192121535558556 105.66270114601521 H 0.0 **** 0.06
16088 H 25.388753216355497 16.591954221927722 105.13941345842818 H 0.0 **** 0.06
16089 H 24.57785889009449 15.857592891864513 106.54476436695624 H 0.0 **** 0.06
16090 H 25.237616695399424 17.507392929210056 106.65934504509957 H 0.0 **** 0.06
16091 C 80.85698289278434 46.57790119002961 85.74174512675779 C 0.0 **** -0.24
16092 H 81.08847171400913 47.641372155115846 85.80778324149429 H 0.0 **** 0.06
16093 H 81.67815940514777 46.05728263228197 85.25049882691184 H 0.0 **** 0.06
16094 H 79.94186165546597 46.4414631979478 85.16463473244005 H 0.0 **** 0.06
16095 H 80.71718893738921 46.17408376725689 86.74450466683828 H 0.0 **** 0.06
16096 C 28.73833315792308 63.13312448612356 34.87142009612087 C 0.0 **** -0.24
16097 H 27.69513012179732 63.04225973755766 34.56802002328254 H 0.0 **** 0.06
16098 H 29.265919439083063 62.20857739607101 34.637321956658035 H 0.0 **** 0.06
16099 H 28.789400417305956 63.32093840574743 35.943787387018915 H 0.0 **** 0.06
16100 H 29.200964733863657 63.961665991609266 34.333824864350625 H 0.0 **** 0.06
16101 C 91.43868887304038 36.76576753653049 7.108934423759891 C 0.0 **** -0.24
16102 H 91.25421944735868 36.08426873043288 7.939127135679129 H 0.0 **** 0.06
16103 H 92.40936143944396 37.24496708510168 7.240749364981667 H 0.0 **** 0.06
16104 H 90.6593801918674 37.52650917410631 7.083368530690379 H 0.0 **** 0.06
16105 H 91.43278327348668 36.207393474756515 6.172625122683002 H 0.0 **** 0.06
16106 C 31.49911372014293 66.0848169767333 44.462192925790816 C 0.0 **** -0.24
16107 H 32.422855851120005 65.81217344399857 43.952311071003436 H 0.0 **** 0.06
16108 H 31.507733920249194 65.67675848684789 45.47273461063327 H 0.0 **** 0.06
16109 H 30.647842923857155 65.68026439895726 43.91431993015908 H 0.0 **** 0.06
16110 H 31.417408626599325 67.17065081779327 44.50886935793213 H 0.0 **** 0.06
16111 C 112.2657060587041 59.785916242848316 101.94745071020765 C 0.0 **** -0.24
16112 H 112.58041089848186 60.00059110083464 100.92592922079825 H 0.0 **** 0.06
16113 H 112.26745286879193 58.70770009267443 102.10801051018888 H 0.0 **** 0.06
16114 H 111.26077137847636 60.17638847913503 102.10774816102673 H 0.0 **** 0.06
16115 H 112.95554804399816 60.25881608594722 102.6463472121759 H 0.0 **** 0.06
16116 C 52.58605174492187 12.892334731763043 80.73952957492763 C 0.0 **** -0.24
16117 H 52.57729025667239 13.718018273136124 80.02706795804511 H 0.0 **** 0.06
16118 H 52.550898812267825 11.94729407622637 80.19813605130064 H 0.0 **** 0.06
16119 H 51.71893282408507 12.96891371829679 81.39513232054188 H 0.0 **** 0.06
16120 H 53.49705475033952 12.93712094260357 81.33555324972265 H 0.0 **** 0.06
16121 C 4.984624837984256 2.7117304451934565 95.10508301642835 C 0.0 **** -0.24
16122 H 5.67459067556868 2.4922842525175657 94.28981673528142 H 0.0 **** 0.06
16123 H 5.4829681125659135 3.3401845224019144 95.84325102763512 H 0.0 **** 0.06
16124 H 4.669181437504278 1.7799957023674047 95.57310791259897 H 0.0 **** 0.06
16125 H 4.112293671587906 3.2344375793668423 94.71059063480789 H 0.0 **** 0.06
16126 C 104.57627139547614 19.80339037364614 73.03795354958191 C 0.0 **** -0.24
16127 H 105.60039450854003 19.45682086534522 73.17517220825206 H 0.0 **** 0.06
16128 H 104.26696573941783 20.37876315390767 73.91003019761123 H 0.0 **** 0.06
16129 H 103.9159240025595 18.944353554719726 72.91586069796256 H 0.0 **** 0.06
16130 H 104.52273390481398 20.431472125485925 72.1488801064479 H 0.0 **** 0.06
16131 C 90.81457257673156 40.918175380980955 113.5279343556131 C 0.0 **** -0.24
16132 H 91.67980777741934 40.87271877003809 112.86675035361516 H 0.0 **** 0.06
16133 H 90.64745452178671 39.93827417010681 113.97479642687908 H 0.0 **** 0.06
16134 H 89.93501475455412 41.21061605663516 112.9538924800246 H 0.0 **** 0.06
16135 H 90.99593020166475 41.6511127916107 114.31456817280441 H 0.0 **** 0.06
16136 C 73.74842150799589 109.05740343124918 96.91439449599227 C 0.0 **** -0.24
16137 H 73.03537266439997 109.33818926168158 97.69016525781404 H 0.0 **** 0.06
16138 H 74.62331919061643 109.70461205699678 96.97368681367772 H 0.0 **** 0.06
16139 H 73.28023172743616 109.16703303163146 95.93585922778067 H 0.0 **** 0.06
16140 H 74.05202537317308 108.02099802429996 97.05771235423816 H 0.0 **** 0.06
16141 C 79.54082701815436 18.33455045775905 103.12672329664815 C 0.0 **** -0.24
16142 H 78.86736071525483 19.148585676557488 103.39444394051105 H 0.0 **** 0.06
16143 H 79.41499937512984 17.512537032294205 103.83142315396243 H 0.0 **** 0.06
16144 H 80.57121969467707 18.689248060493853 103.16133733837239 H 0.0 **** 0.06
16145 H 79.30972828755591 17.987831061690912 102.11968875374686 H 0.0 **** 0.06
16146 C 53.841352447178224 50.6227133615386 102.876272250472 C 0.0 **** -0.24
16147 H 53.755554168348226 50.104226958954115 103.83047766856902 H 0.0 **** 0.06
16148 H 53.39577426216914 51.614050188294065 102.95951249094259 H 0.0 **** 0.06
16149 H 53.31952842580256 50.05351770017845 102.10614848362357 H 0.0 **** 0.06
16150 H 54.893104974473374 50.71818884147633 102.60748501766733 H 0.0 **** 0.06
16151 C 112.93566939284304 2.325718098231775 74.78894116645415 C 0.0 **** -0.24
16152 H 112.98779124765542 3.2734654444615785 74.2532212538926 H 0.0 **** 0.06
16153 H 113.69650639979108 1.6478813301796151 74.40131641685497 H 0.0 **** 0.06
16154 H 111.94930907288426 1.8840379604190787 74.64968066161902 H 0.0 **** 0.06
16155 H 113.10986291025779 2.499555409027323 75.85123435324834 H 0.0 **** 0.06
16156 C 44.9491279462461 92.32797193514125 67.38865108174332 C 0.0 **** -0.24
16157 H 44.11307320284369 92.38969075162777 66.69161389520531 H 0.0 **** 0.06
16158 H 44.69206241401857 91.65032106926711 68.20409469836017 H 0.0 **** 0.06
16159 H 45.15835377448252 93.3184253214888 67.79153461174417 H 0.0 **** 0.06
16160 H 45.830073059407546 91.9529409698813 66.86756659269264 H 0.0 **** 0.06
16161 C 105.47055920221625 57.39366664189042 41.58510354261358 C 0.0 **** -0.24
16162 H 105.3568777977317 56.558121650351694 40.89555472601347 H 0.0 **** 0.06
16163 H 104.93960455246955 57.17525628093479 42.512167554921064 H 0.0 **** 0.06
16164 H 105.05855419150109 58.29687094923608 41.13390130222746 H 0.0 **** 0.06
16165 H 106.52914735069848 57.545614446717124 41.79967204809677 H 0.0 **** 0.06
16166 C 55.25023031411618 84.47637986128387 81.14198713455102 C 0.0 **** -0.24
16167 H 56.28919099241479 84.78862141348787 81.24393041305962 H 0.0 **** 0.06
16168 H 54.621171800163914 85.09250663402185 81.78450308219061 H 0.0 **** 0.06
16169 H 55.15552142188595 83.43027758507066 81.43353098829107 H 0.0 **** 0.06
16170 H 54.93695726358165 84.59453274348203 80.1049175040232 H 0.0 **** 0.06
16171 C 68.16109542001348 94.32309357531646 57.7080382555296 C 0.0 **** -0.24
16172 H 67.53579604003347 93.8079590902472 56.97819803018439 H 0.0 **** 0.06
16173 H 69.05654044435529 94.70126736957751 57.21606744957896 H 0.0 **** 0.06
16174 H 68.44606168237637 93.62565785468955 58.49672785685179 H 0.0 **** 0.06
16175 H 67.60549236587623 95.15393124388024 58.14085168777817 H 0.0 **** 0.06
16176 C 24.485504412488808 81.42060337137212 91.1942973584936 C 0.0 **** -0.24
16177 H 25.374722107063462 80.93006144161797 90.79691954569603 H 0.0 **** 0.06
16178 H 24.679563053770266 82.48728334376625 91.30817296226002 H 0.0 **** 0.06
16179 H 24.235579544492452 80.9906137876381 92.1640819001247 H 0.0 **** 0.06
16180 H 23.652598568512758 81.27424726977728 90.50668897250401 H 0.0 **** 0.06
16181 C 40.74452807739263 51.17164958422799 90.74355928051068 C 0.0 **** -0.24
16182 H 40.66908338187744 50.15156606271739 90.36946015765145 H 0.0 **** 0.06
16183 H 39.750634640574134 51.536026341921 91.00784151926484 H 0.0 **** 0.06
16184 H 41.17320412314032 51.81140586673416 89.9725934815101 H 0.0 **** 0.06
16185 H 41.38410931714782 51.18797328205579 91.6262636201597 H 0.0 **** 0.06
16186 C 55.61385392019088 42.5636610684646 64.34127793877656 C 0.0 **** -0.24
16187 H 55.64534979717348 43.62768453622505 64.57528352034811 H 0.0 **** 0.06
16188 H 54.57652765813013 42.23762152975189 64.27129972374195 H 0.0 **** 0.06
16189 H 56.11933257301146 42.00437739533412 65.12850703814449 H 0.0 **** 0.06
16190 H 56.11636670015069 42.38678361829946 63.390109261915356 H 0.0 **** 0.06
16191 C 99.7076945274055 80.76958939727469 83.24690178710294 C 0.0 **** -0.24
16192 H 99.04415662366281 79.91183884911315 83.35062221015417 H 0.0 **** 0.06
16193 H 100.4742596054081 80.73273285069023 84.02094127649951 H 0.0 **** 0.06
16194 H 99.13059932778776 81.68912685938824 83.35074596189126 H 0.0 **** 0.06
16195 H 100.18095498086045 80.74619111858287 82.26527119519899 H 0.0 **** 0.06
16196 C 94.7978418077015 15.689286132440145 89.81794798129783 C 0.0 **** -0.24
16197 H 94.98745050098222 15.642428113719518 90.89110897639223 H 0.0 **** 0.06
16198 H 95.73757450031468 15.857349688121474 89.29129278453601 H 0.0 **** 0.06
16199 H 94.11028478813324 16.507473406597455 89.60613810827003 H 0.0 **** 0.06
16200 H 94.35799898564312 14.749172859628572 89.48584280227325 H 0.0 **** 0.06
16201 C 42.235269656227075 8.847649752230485 96.43863308892263 C 0.0 **** -0.24
16202 H 42.15694734050845 9.143527856829149 95.39162524815923 H 0.0 **** 0.06
16203 H 43.228184128294004 9.096066294477929 96.8126151605106 H 0.0 **** 0.06
16204 H 42.07320439603396 7.772982607377315 96.52444076968841 H 0.0 **** 0.06
16205 H 41.48230339181973 9.377593718129006 97.02216009187663 H 0.0 **** 0.06
16206 C 104.97695609447453 14.86405364038393 71.43798794660148 C 0.0 **** -0.24
16207 H 105.83428842186004 15.525497796169589 71.30828623406182 H 0.0 **** 0.06
16208 H 104.95863810268077 14.489117247400543 72.46084602690848 H 0.0 **** 0.06
16209 H 105.05776298227175 14.02656341062962 70.74443336074506 H 0.0 **** 0.06
16210 H 104.05908475979663 15.415542434167605 71.23556796499946 H 0.0 **** 0.06
16211 C 22.30910985879713 108.1036611562013 105.99475393246162 C 0.0 **** -0.24
16212 H 22.864246216821414 107.3493333215008 106.55304305090094 H 0.0 **** 0.06
16213 H 21.256722066981723 107.82357128303842 105.95393572300641 H 0.0 **** 0.06
16214 H 22.70711913829254 108.1714138067653 104.98210800921545 H 0.0 **** 0.06
16215 H 22.410418812503707 109.06906768360594 106.49030945148242 H 0.0 **** 0.06
16216 C 53.66574488215025 91.46012024517546 42.652888414925975 C 0.0 **** -0.24
16217 H 53.52852654226237 91.44925035821689 41.572100985800816 H 0.0 **** 0.06
16218 H 52.78285503915089 91.88879239620172 43.12707747700236 H 0.0 **** 0.06
16219 H 54.53915657339505 92.06267337640531 42.90129587977688 H 0.0 **** 0.06
16220 H 53.81289274887709 90.44195426468349 43.011134159188266 H 0.0 **** 0.06
16221 C 53.04068461236251 62.1850899156405 65.57672730976213 C 0.0 **** -0.24
16222 H 53.32845697018101 61.15485853870129 65.36474619657855 H 0.0 **** 0.06
16223 H 53.503826352674714 62.50597779890654 66.50970707295954 H 0.0 **** 0.06
16224 H 51.95678861929558 62.24800637210248 65.66833788492067 H 0.0 **** 0.06
16225 H 53.37453019679779 62.82922489911087 64.76408856730922 H 0.0 **** 0.06
16226 C 18.378675993661204 111.73746147156862 64.77872552399606 C 0.0 **** -0.24
16227 H 18.36831498057623 110.88032277804665 64.1043594908341 H 0.0 **** 0.06
16228 H 18.387002104145978 111.38676420767182 65.8114383309362 H 0.0 **** 0.06
16229 H 17.490012187671653 112.34417221290437 64.60797656681831 H 0.0 **** 0.06
16230 H 19.269292421449904 112.33615125607437 64.5913771950174 H 0.0 **** 0.06
16231 C 25.127860994712925 39.05683259719342 88.78058698798569 C 0.0 **** -0.24
16232 H 24.356985109035207 39.81710148916483 88.65167159332037 H 0.0 **** 0.06
16233 H 25.144621201544872 38.40661959600098 87.9050101534987 H 0.0 **** 0.06
16234 H 24.909009310663656 38.46438448550148 89.66945018258667 H 0.0 **** 0.06
16235 H 26.098326773316586 39.53895908553284 88.89458140515342 H 0.0 **** 0.06
16236 C 91.16040594585436 110.56663074498874 70.4419450558853 C 0.0 **** -0.24
16237 H 91.2638730651619 109.84063491983332 69.63569561881388 H 0.0 **** 0.06
16238 H 91.19697004294397 110.05017055545554 71.40177033347689 H 0.0 **** 0.06
16239 H 90.20567612742656 111.08387268173382 70.34359190643619 H 0.0 **** 0.06
16240 H 91.9734044798409 111.29039656693283 70.3866100816195 H 0.0 **** 0.06
16241 C 77.11041442070069 69.73741551500912 115.16968372618054 C 0.0 **** -0.24
16242 H 77.27692343424621 69.46157414807972 114.12870591390876 H 0.0 **** 0.06
16243 H 77.29738652455364 68.87397462984914 115.80800638390318 H 0.0 **** 0.06
16244 H 76.07966639563045 70.0677037005606 115.29717395876679 H 0.0 **** 0.06
16245 H 77.78817953502704 70.5461558393075 115.44401951494106 H 0.0 **** 0.06
16246 C 71.74637029255443 10.860718234081958 67.39574701740617 C 0.0 **** -0.24
16247 H 71.6649991066142 11.01752448730926 66.32014900504112 H 0.0 **** 0.06
16248 H 70.77842940640377 11.042988034407529 67.8636783918368 H 0.0 **** 0.06
16249 H 72.48485462747124 11.54901691621491 67.80783003361 H 0.0 **** 0.06
16250 H 72.0578363291943 9.833919212269763 67.59081957731132 H 0.0 **** 0.06
16251 C 64.29607045221206 109.79981969909389 87.01200441564635 C 0.0 **** -0.24
16252 H 65.34634117930942 109.70676599647767 86.73462922872486 H 0.0 **** 0.06
16253 H 64.21342692737291 109.88661728083869 88.09577322315849 H 0.0 **** 0.06
16254 H 63.752894529419706 108.91680721500424 86.67503938036336 H 0.0 **** 0.06
16255 H 63.873539074715296 110.68756920963135 86.54265749877356 H 0.0 **** 0.06
16256 C 111.60332785527896 53.62086872330412 4.641158949443593 C 0.0 **** -0.24
16257 H 111.89990113581268 53.02062896136977 5.500487170320355 H 0.0 **** 0.06
16258 H 110.54655124374437 53.87576060409488 4.723395800641569 H 0.0 **** 0.06
16259 H 111.77044659413309 53.05348561552914 3.7261309526678303 H 0.0 **** 0.06
16260 H 112.19662311840767 54.535379680571666 4.61595889124375 H 0.0 **** 0.06
16261 C 78.96804702368863 54.4701308765177 49.7437427962535 C 0.0 **** -0.24
16262 H 78.16791708766311 54.93285479251363 50.32241997648896 H 0.0 **** 0.06
16263 H 79.61904757019619 55.245901891503145 49.33956186518465 H 0.0 **** 0.06
16264 H 78.53613391018996 53.893518813735945 48.925886369263594 H 0.0 **** 0.06
16265 H 79.54722000066516 53.80927608594595 50.38895995648704 H 0.0 **** 0.06
16266 C 18.448805482874974 94.73708052415867 42.09701685749309 C 0.0 **** -0.24
16267 H 17.568008689963563 95.08669720420363 42.6359665429477 H 0.0 **** 0.06
16268 H 19.292974753272063 94.67342628887673 42.78391711102023 H 0.0 **** 0.06
16269 H 18.68453915654908 95.43554577172506 41.295166254382366 H 0.0 **** 0.06
16270 H 18.24869585242857 93.75181326682133 41.674152568098805 H 0.0 **** 0.06
16271 C 8.94771716443329 42.153848880790406 25.18484161013299 C 0.0 **** -0.24
16272 H 8.897328266667586 42.03757270889702 24.10231754368246 H 0.0 **** 0.06
16273 H 8.407345264448317 43.053839252993896 25.478707408364016 H 0.0 **** 0.06
16274 H 9.990821549798643 42.238390333765665 25.492574678017604 H 0.0 **** 0.06
16275 H 8.497549211292881 41.28514356320619 25.66551244663026 H 0.0 **** 0.06
16276 C 13.064200826359354 109.62887128289621 44.43343781678135 C 0.0 **** -0.24
16277 H 12.487497993639664 110.11847992832307 43.64859211118454 H 0.0 **** 0.06
16278 H 12.533027430518473 108.7387275444054 44.77273206795854 H 0.0 **** 0.06
16279 H 13.194596050412969 110.31534785148264 45.27051583512275 H 0.0 **** 0.06
16280 H 14.040708080231468 109.34305348256143 44.042102488348064 H 0.0 **** 0.06
16281 C 62.67474486575179 93.86963084717615 97.37248648059696 C 0.0 **** -0.24
16282 H 62.085371047686806 93.06111666188514 97.80629511806913 H 0.0 **** 0.06
16283 H 63.30282415718699 94.31541298319866 98.14300395396873 H 0.0 **** 0.06
16284 H 62.00619159468346 94.62797463263851 96.96392702320263 H 0.0 **** 0.06
16285 H 63.30411145575033 93.47229435768213 96.57538044314161 H 0.0 **** 0.06
16286 C 11.424135037366426 115.8757916981206 11.136546019079645 C 0.0 **** -0.24
16287 H 11.042086209316025 116.89417049033047 11.07173988828427 H 0.0 **** 0.06
16288 H 12.156792965845 115.81323563278904 11.941819086494633 H 0.0 **** 0.06
16289 H 11.895888821565762 115.60339078003338 10.19196319500125 H 0.0 **** 0.06
16290 H 10.599463886257055 115.19229040687313 11.341477951610642 H 0.0 **** 0.06
16291 C 99.29125508322133 31.069806616280317 35.67431760311251 C 0.0 **** -0.24
16292 H 99.39378775547748 31.62004994772264 34.738959444114045 H 0.0 **** 0.06
16293 H 99.12121501328818 30.015330495349488 35.457555007070596 H 0.0 **** 0.06
16294 H 98.44758154280419 31.466230171512535 36.237577550137416 H 0.0 **** 0.06
16295 H 100.20314912154252 31.17786336572503 36.261073533790096 H 0.0 **** 0.06
16296 C 19.78897294651665 57.47002918794993 3.527101774312621 C 0.0 **** -0.24
16297 H 20.317475318188713 56.751803532197954 2.8996619390902865 H 0.0 **** 0.06
16298 H 19.70386411922459 57.07525099173915 4.539734600711515 H 0.0 **** 0.06
16299 H 18.793491205160876 57.64435975078874 3.119648131176856 H 0.0 **** 0.06
16300 H 20.342917951180084 58.40880855991884 3.54812093686321 H 0.0 **** 0.06
16301 C 73.59208031342297 1.297752264454516 19.532104429097714 C 0.0 **** -0.24
16302 H 74.54501246727034 0.767772836565058 19.539832452036848 H 0.0 **** 0.06
16303 H 72.85050355751974 0.7033134079527485 18.998134455196194 H 0.0 **** 0.06
16304 H 73.71477416779567 2.2596970133512855 19.035399269346428 H 0.0 **** 0.06
16305 H 73.2582442110268 1.458041677088147 20.55808221143782 H 0.0 **** 0.06
16306 C 82.96235550763043 36.04650086389546 112.0964950445733 C 0.0 **** -0.24
16307 H 83.63147002766547 36.86650287170767 111.83444150146268 H 0.0 **** 0.06
16308 H 83.04732577221387 35.83532942040489 113.1631638378809 H 0.0 **** 0.06
16309 H 83.23637369102624 35.158506710246 111.52671089061091 H 0.0 **** 0.06
16310 H 81.93549467950021 36.32652403158545 111.86081637289483 H 0.0 **** 0.06
16311 C 24.300536211440487 27.771094034681596 94.88589197601635 C 0.0 **** -0.24
16312 H 25.199458172381128 27.825826640511707 94.27267982161942 H 0.0 **** 0.06
16313 H 24.575848900670678 27.81365326987219 95.9404104798493 H 0.0 **** 0.06
16314 H 23.778368954085266 26.83590683016797 94.68339059370413 H 0.0 **** 0.06
16315 H 23.646667072900158 28.610242925650482 94.64751440276314 H 0.0 **** 0.06
16316 C 20.836250761188566 102.32800399142512 0.5518057317372733 C 0.0 **** -0.24
16317 H 21.458789235616933 103.21811610439003 0.6348403711982264 H 0.0 **** 0.06
16318 H 19.830271091806424 102.55323687393029 0.9073681975504595 H 0.0 **** 0.06
16319 H 21.264422884747518 101.52765041316795 1.155918617699717 H 0.0 **** 0.06
16320 H 20.79179762868128 102.01173171117273 -0.4903729094021747 H 0.0 **** 0.06
16321 C 1.70308216326643 54.69430808762795 43.33013158632821 C 0.0 **** -0.24
16322 H 2.465055257028723 53.92894605343776 43.47508494027278 H 0.0 **** 0.06
16323 H 0.752022999673386 54.21925184729961 43.08838456939304 H 0.0 **** 0.06
16324 H 1.9998475909390123 55.35196243073453 42.51292315669485 H 0.0 **** 0.06
16325 H 1.5959085152868795 55.27745292797114 44.244907773767466 H 0.0 **** 0.06
16326 C 30.097873901144368 28.135819708915164 76.57761553043935 C 0.0 **** -0.24
16327 H 31.18198453986686 28.24971741109877 76.57761139804563 H 0.0 **** 0.06
16328 H 29.842115621059122 27.097457384012387 76.36817842126555 H 0.0 **** 0.06
16329 H 29.665590389833994 28.77826899634499 75.81046141623625 H 0.0 **** 0.06
16330 H 29.702593213836394 28.418200251215865 77.55371542230029 H 0.0 **** 0.06
16331 C 18.03350430651369 24.58475849637867 33.83774963099304 C 0.0 **** -0.24
16332 H 18.01562891173097 25.515190936859284 34.40646095942365 H 0.0 **** 0.06
16333 H 19.0648707986484 24.247522754413353 33.72798694875277 H 0.0 **** 0.06
16334 H 17.598885485306084 24.753015961704648 32.85337909559067 H 0.0 **** 0.06
16335 H 17.456646786100492 23.825324078234814 34.36559271468986 H 0.0 **** 0.06
16336 C 8.163536061693776 89.2397888504691 42.869039587547455 C 0.0 **** -0.24
16337 H 8.317243226384335 90.31225042060024 42.989774246309054 H 0.0 **** 0.06
16338 H 7.330932708113096 89.06591565579885 42.186922765909316 H 0.0 **** 0.06
16339 H 7.938582734405884 88.7942416894403 43.8386010051055 H 0.0 **** 0.06
16340 H 9.067499404741795 88.78636052504046 42.46221580409155 H 0.0 **** 0.06
16341 C 9.24617733046523 58.91409726115177 22.671564661901044 C 0.0 **** -0.24
16342 H 8.204259430422582 58.605683209345386 22.76047723488557 H 0.0 **** 0.06
16343 H 9.291522422150322 59.937488672954544 22.299554747302125 H 0.0 **** 0.06
16344 H 9.763257946114237 58.25100338895055 21.97770968401892 H 0.0 **** 0.06
16345 H 9.725453301954431 58.86147146863442 23.650066950000593 H 0.0 **** 0.06
16346 C 104.36476819861701 95.52076948859974 5.499021429131744 C 0.0 **** -0.24
16347 H 104.66830241782418 94.8321635085253 6.287966530308239 H 0.0 **** 0.06
16348 H 103.28128094915311 95.48313721768099 5.381034931569218 H 0.0 **** 0.06
16349 H 104.84287790279372 95.23353538898269 4.562957226326915 H 0.0 **** 0.06
16350 H 104.66650684581204 96.53325937203715 5.765138914832789 H 0.0 **** 0.06
16351 C 19.135567467931537 81.06490692399576 88.71316880758161 C 0.0 **** -0.24
16352 H 18.45406485713164 80.77495599184937 89.51409346715062 H 0.0 **** 0.06
16353 H 19.565845064905034 82.04121775321062 88.93737838863888 H 0.0 **** 0.06
16354 H 18.588395297017712 81.1149146199845 87.77216649144879 H 0.0 **** 0.06
16355 H 19.933100601882586 80.32588936001687 88.63132419801067 H 0.0 **** 0.06
16356 C 21.657615995427307 114.0121156776799 111.57439365409988 C 0.0 **** -0.24
16357 H 22.644734971592456 113.54863132290274 111.55710161737602 H 0.0 **** 0.06
16358 H 21.11450032822941 113.74254163469577 110.66895137234545 H 0.0 **** 0.06
16359 H 21.766616134459923 115.0956133887087 111.62420577035755 H 0.0 **** 0.06
16360 H 21.10759231865211 113.66175697229143 112.44765493975873 H 0.0 **** 0.06
16361 C 87.77566242837196 95.63313702085159 90.83974757460837 C 0.0 **** -0.24
16362 H 88.02086805632774 94.6244214041683 91.17298711567963 H 0.0 **** 0.06
16363 H 88.48799912798634 96.33942748792866 91.2670341280658 H 0.0 **** 0.06
16364 H 86.76873668981258 95.88952015276286 91.16836707119444 H 0.0 **** 0.06
16365 H 87.82658795560098 95.67773679019272 89.75248407065575 H 0.0 **** 0.06
16366 C 21.233499398106858 73.09729306333514 67.5894665230947 C 0.0 **** -0.24
16367 H 21.701860759341997 72.13745687362893 67.37006570918356 H 0.0 **** 0.06
16368 H 20.230690413996513 72.93011042191688 67.9831271447751 H 0.0 **** 0.06
16369 H 21.171553373764226 73.68827657716162 66.67500777575634 H 0.0 **** 0.06
16370 H 21.830365007827254 73.6321032708509 68.32785531302153 H 0.0 **** 0.06
16371 C 19.336898055550364 53.164522112786926 59.222490655876925 C 0.0 **** -0.24
16372 H 18.904094990935704 54.1635533289529 59.182695858908474 H 0.0 **** 0.06
16373 H 20.099404869953105 53.06830000721084 58.44913093625402 H 0.0 **** 0.06
16374 H 18.555181640862685 52.42368067138091 59.057569752771556 H 0.0 **** 0.06
16375 H 19.78873829280468 53.00341105267438 60.20105243600317 H 0.0 **** 0.06
16376 C 102.95689044001158 101.34451177372235 48.957680364504654 C 0.0 **** -0.24
16377 H 103.9545074460443 101.66329624137757 48.65583550492859 H 0.0 **** 0.06
16378 H 102.21706278471987 102.03494626350223 48.55226227497339 H 0.0 **** 0.06
16379 H 102.8914573212794 101.33865737925892 50.045825484740504 H 0.0 **** 0.06
16380 H 102.76455577294725 100.3414984171493 48.57586211331491 H 0.0 **** 0.06
16381 C 17.533009829968705 84.21609203400774 6.725465948780425 C 0.0 **** -0.24
16382 H 17.357547388399126 85.06657776289785 6.066930078467919 H 0.0 **** 0.06
16383 H 16.590611555083086 83.70109748121922 6.911588620695284 H 0.0 **** 0.06
16384 H 17.94815411985857 84.5693425000365 7.669965257356125 H 0.0 **** 0.06
16385 H 18.235943827720945 83.5303392657417 6.2535205779381755 H 0.0 **** 0.06
16386 C 28.33402246753856 81.36130132757796 85.11094104042559 C 0.0 **** -0.24
16387 H 29.047845087099454 81.87185058327725 84.46459572122745 H 0.0 **** 0.06
16388 H 28.711400139711976 80.36750747867991 85.35471862386082 H 0.0 **** 0.06
16389 H 27.37755232758724 81.27132043376456 84.5967651764323 H 0.0 **** 0.06
16390 H 28.20003393504863 81.93441312398052 86.02834579986835 H 0.0 **** 0.06
16391 C 77.22633028766109 56.856685825181614 22.985604944984345 C 0.0 **** -0.24
16392 H 77.37982617449768 55.843376360724506 23.35543252747692 H 0.0 **** 0.06
16393 H 76.55952995391578 57.39333738064573 23.661329771150292 H 0.0 **** 0.06
16394 H 76.78092366536674 56.816695957207 21.99119690651378 H 0.0 **** 0.06
16395 H 78.1850413568643 57.37333360214927 22.934460574796788 H 0.0 **** 0.06
16396 C 112.71634973838889 87.27076309626955 8.907385153699813 C 0.0 **** -0.24
16397 H 113.36703548038571 87.84325503700028 9.568026181561073 H 0.0 **** 0.06
16398 H 112.97336608244945 87.48645976460834 7.869517534949702 H 0.0 **** 0.06
16399 H 111.6784223526908 87.54864521421129 9.08951093643914 H 0.0 **** 0.06
16400 H 112.8479725340834 86.20613912326823 9.101088017363157 H 0.0 **** 0.06
16401 C 49.05713337935965 33.23026126442676 9.53322574594982 C 0.0 **** -0.24
16402 H 48.823456843730156 32.16716123842775 9.467284679611119 H 0.0 **** 0.06
16403 H 49.84326493094665 33.38359615975219 10.273063019576334 H 0.0 **** 0.06
16404 H 48.16461717501754 33.780332556594544 9.831777188220958 H 0.0 **** 0.06
16405 H 49.396668763798374 33.58802751748783 8.560868495565774 H 0.0 **** 0.06
16406 C 83.59218992604724 42.55955140037241 113.76723616952943 C 0.0 **** -0.24
16407 H 83.11515830819229 42.86393508736896 112.83557691519276 H 0.0 **** 0.06
16408 H 83.93361571931052 41.52864088231422 113.6802797566137 H 0.0 **** 0.06
16409 H 82.87553857509317 42.63792312161809 114.58460037984045 H 0.0 **** 0.06
16410 H 84.44460424021497 43.20940820641533 113.96820530043459 H 0.0 **** 0.06
16411 C 75.70081190967579 112.7523742326452 27.614246791593402 C 0.0 **** -0.24
16412 H 75.43988654902091 113.17379223179083 28.584843185186735 H 0.0 **** 0.06
16413 H 76.4369999451797 111.95974559768189 27.748144442446296 H 0.0 **** 0.06
16414 H 76.11872096123051 113.53441675371978 26.979605849443907 H 0.0 **** 0.06
16415 H 74.8066803708573 112.34165462027181 27.144136372778092 H 0.0 **** 0.06
16416 C 36.63104634811876 80.84100859674297 18.08082409775419 C 0.0 **** -0.24
16417 H 37.38575363339766 80.4610011857115 17.392314961056556 H 0.0 **** 0.06
16418 H 35.65093730352808 80.4591575377579 17.791662043397153 H 0.0 **** 0.06
16419 H 36.62215695802032 81.9303223839427 18.04500513408196 H 0.0 **** 0.06
16420 H 36.86575875013194 80.5126158890173 19.093342676987817 H 0.0 **** 0.06
16421 C 15.21957707043282 85.11327691297967 37.87997180675504 C 0.0 **** -0.24
16422 H 15.794314867204264 85.8310815817561 37.29418045174435 H 0.0 **** 0.06
16423 H 14.860022920671184 84.31762981244938 37.22702074297396 H 0.0 **** 0.06
16424 H 14.369840783711709 85.61736891123182 38.340230482444426 H 0.0 **** 0.06
16425 H 15.85437963314331 84.68729184950006 38.657088915168885 H 0.0 **** 0.06
16426 C 93.6313982764192 69.56234498320379 47.24989682488861 C 0.0 **** -0.24
16427 H 94.36702882112805 68.98676607410812 47.81203577089465 H 0.0 **** 0.06
16428 H 92.87189382990019 68.88940673746367 46.84989087747739 H 0.0 **** 0.06
16429 H 94.1275533139155 70.08112920755053 46.42916379438795 H 0.0 **** 0.06
16430 H 93.16076791462048 70.29195502531792 47.90961938584422 H 0.0 **** 0.06
16431 C 3.225205147417233 100.23648269482473 9.312801076512258 C 0.0 **** -0.24
16432 H 2.3409998395895606 100.38640539200577 8.69458378393982 H 0.0 **** 0.06
16433 H 4.094510011276121 100.66659440472326 8.815374171495321 H 0.0 **** 0.06
16434 H 3.3847597067082162 99.16840517314998 9.465304795007086 H 0.0 **** 0.06
16435 H 3.0797564593856617 100.72281689881515 10.277506362280405 H 0.0 **** 0.06
16436 C 29.691659720956466 103.96695196976452 5.305439704360566 C 0.0 **** -0.24
16437 H 30.65643132118587 104.38594359277455 5.590575298596292 H 0.0 **** 0.06
16438 H 29.83414581054923 103.23401969091367 4.51214501167442 H 0.0 **** 0.06
16439 H 29.039962984756308 104.76555875684215 4.9512941039279355 H 0.0 **** 0.06
16440 H 29.236446632764604 103.4835370780313 6.169821355462375 H 0.0 **** 0.06
16441 C 2.439386482505938 40.63273840714186 14.030783638715434 C 0.0 **** -0.24
16442 H 1.9871149705436437 40.658449507817295 13.039556140897446 H 0.0 **** 0.06
16443 H 1.75844104279102 40.144117150657536 14.727607234882214 H 0.0 **** 0.06
16444 H 2.636446438973138 41.65034607382654 14.366782918651268 H 0.0 **** 0.06
16445 H 3.3759030469631455 40.07605319461527 13.988229075144119 H 0.0 **** 0.06
16446 C 21.091565849126425 96.29045264657904 81.06920875497714 C 0.0 **** -0.24
16447 H 20.866737560433307 96.11601218003925 82.12142371406688 H 0.0 **** 0.06
16448 H 21.340095622555793 97.3416769882731 80.92044740723884 H 0.0 **** 0.06
16449 H 20.221494605919872 96.03337254071572 80.46456965670109 H 0.0 **** 0.06
16450 H 21.93767766326954 95.67077814073649 80.77135998785039 H 0.0 **** 0.06
16451 C 12.255366802694539 30.29563990397591 81.4000130813559 C 0.0 **** -0.24
16452 H 13.300102870504247 30.47045484400573 81.65884872844411 H 0.0 **** 0.06
16453 H 12.081033115668276 29.223855060272086 81.30237292796407 H 0.0 **** 0.06
16454 H 12.026956435783859 30.78889551550995 80.4557016345369 H 0.0 **** 0.06
16455 H 11.615004654735742 30.698698079606146 82.18451226711949 H 0.0 **** 0.06
16456 C 27.030961539315626 20.107601747148266 28.85975961683613 C 0.0 **** -0.24
16457 H 27.399296995774904 20.502163701195002 29.806202617400587 H 0.0 **** 0.06
16458 H 25.941344082442242 20.149056992767754 28.848902762709955 H 0.0 **** 0.06
16459 H 27.35702056801864 19.073950296540772 28.744595657749073 H 0.0 **** 0.06
16460 H 27.425784388110117 20.70676327368784 28.03862503809995 H 0.0 **** 0.06
16461 C 106.69174689635253 84.14291232844796 6.885979632823865 C 0.0 **** -0.24
16462 H 107.77267207401019 84.23070392555167 6.773543043368818 H 0.0 **** 0.06
16463 H 106.46634409761458 83.54532912101074 7.769305420316536 H 0.0 **** 0.06
16464 H 106.2736609133762 83.65864295253459 6.003171121071425 H 0.0 **** 0.06
16465 H 106.25642322569837 85.13576920957331 6.99760421974838 H 0.0 **** 0.06
16466 C 6.194338465479291 7.759773045691446 36.228208186945444 C 0.0 **** -0.24
16467 H 6.813949439534596 7.264454112879548 36.97621085239272 H 0.0 **** 0.06
16468 H 6.379344362399507 7.31441794105838 35.25015948548207 H 0.0 **** 0.06
16469 H 6.4409694163524875 8.821057710759106 36.19713426302145 H 0.0 **** 0.06
16470 H 5.143459968570895 7.639122622568266 36.49025662535553 H 0.0 **** 0.06
16471 C 101.08001165124637 3.005081754059262 112.28393391880059 C 0.0 **** -0.24
16472 H 101.55011472130107 3.749557527694037 111.64193046030351 H 0.0 **** 0.06
16473 H 101.69126259812583 2.103185427241101 112.3021495291546 H 0.0 **** 0.06
16474 H 100.09010805278223 2.7651834924949696 111.89682902482113 H 0.0 **** 0.06
16475 H 100.98862020738235 3.4031501850220423 113.29416737768523 H 0.0 **** 0.06
16476 C 107.18314114452787 104.87285016575595 97.28000036670724 C 0.0 **** -0.24
16477 H 106.79035999018313 104.19974924796816 96.51770731796462 H 0.0 **** 0.06
16478 H 106.45607446997855 104.97010569258089 98.08709518523295 H 0.0 **** 0.06
16479 H 107.36981689573432 105.85198584461307 96.83865916792988 H 0.0 **** 0.06
16480 H 108.11468049764335 104.46900902310404 97.67552441549878 H 0.0 **** 0.06
16481 C 82.22843854972913 1.3681776411704618 77.62594856915837 C 0.0 **** -0.24
16482 H 81.14837783338507 1.2877221159214827 77.5139076530379 H 0.0 **** 0.06
16483 H 82.61732125701423 0.452060393971351 78.0717882825935 H 0.0 **** 0.06
16484 H 82.46445229213083 2.2146802827873984 78.27074415007581 H 0.0 **** 0.06
16485 H 82.68500168856212 1.5183976320556098 76.64749845569492 H 0.0 **** 0.06
16486 C 18.439929079969303 45.22683777921992 60.18238551134854 C 0.0 **** -0.24
16487 H 19.16493712200029 45.55519759208552 59.43745011649354 H 0.0 **** 0.06
16488 H 18.961009878949643 44.735271938018144 61.00354770168265 H 0.0 **** 0.06
16489 H 17.740611480114968 44.527980256815596 59.72484366900221 H 0.0 **** 0.06
16490 H 17.894341726771383 46.090792294348745 60.56354907458213 H 0.0 **** 0.06
16491 C 27.078521560433614 69.73000552091855 24.16169423610426 C 0.0 **** -0.24
16492 H 27.537269693880774 70.2471100700227 25.004165933685996 H 0.0 **** 0.06
16493 H 26.467549537421917 70.43182762536816 23.593599612242848 H 0.0 **** 0.06
16494 H 26.451200342121695 68.91820662996122 24.53174326321856 H 0.0 **** 0.06
16495 H 27.858237249771378 69.322469887907 23.51816513056038 H 0.0 **** 0.06
16496 C 18.21201156114131 22.18956199647721 58.297230727012646 C 0.0 **** -0.24
16497 H 19.045203052300735 22.840523931536836 58.032808641027074 H 0.0 **** 0.06
16498 H 17.530355213410928 22.722877567005497 58.95994913618506 H 0.0 **** 0.06
16499 H 18.591568712275034 21.301933926641453 58.80282078074153 H 0.0 **** 0.06
16500 H 17.681809531639033 21.893204741166386 57.392285023690235 H 0.0 **** 0.06
16501 C 98.83622185715295 68.90176383525402 56.175465465252785 C 0.0 **** -0.24
16502 H 99.43394040248536 69.58572531545416 55.57286211815881 H 0.0 **** 0.06
16503 H 97.97284073036023 69.4316020848013 56.5782272170357 H 0.0 **** 0.06
16504 H 99.44202109572149 68.51678310987516 56.996267344007606 H 0.0 **** 0.06
16505 H 98.49733798087398 68.07229051357393 55.55455540902517 H 0.0 **** 0.06
16506 C 19.334765186147877 34.879750797471104 6.89630851074125 C 0.0 **** -0.24
16507 H 20.311632936516418 35.35683769334713 6.811756165824022 H 0.0 **** 0.06
16508 H 18.644656447612363 35.338988297502226 6.187986235708195 H 0.0 **** 0.06
16509 H 18.95493637821795 35.00963387406756 7.909686039387026 H 0.0 **** 0.06
16510 H 19.428289384884238 33.81647431555439 6.676256516871092 H 0.0 **** 0.06
16511 C 37.93958849626772 83.20060985987993 3.610784769836357 C 0.0 **** -0.24
16512 H 38.64387968847353 83.43861435979414 4.407867151786689 H 0.0 **** 0.06
16513 H 37.25526591898571 84.03667381353 3.468513206053643 H 0.0 **** 0.06
16514 H 37.37386260631221 82.30862255688533 3.8803055217500457 H 0.0 **** 0.06
16515 H 38.487590026054015 83.01660135338176 2.685954069033272 H 0.0 **** 0.06
16516 C 3.0271069549803684 113.30520705578562 28.319512711924887 C 0.0 **** -0.24
16517 H 3.382065704186928 112.46336614004719 28.915050103182836 H 0.0 **** 0.06
16518 H 2.644552427792931 114.0821373819474 28.981080418119063 H 0.0 **** 0.06
16519 H 2.231213330122955 112.9685940813863 27.655017708767048 H 0.0 **** 0.06
16520 H 3.8507727039551156 113.70357317301915 27.726901763282683 H 0.0 **** 0.06
16521 C 40.013254841727814 68.49977327517564 65.13290146859379 C 0.0 **** -0.24
16522 H 40.27263119935367 68.07018748452347 66.10053182631503 H 0.0 **** 0.06
16523 H 39.29349816146177 67.85399745511464 64.6298294372748 H 0.0 **** 0.06
16524 H 40.91267994133213 68.58711463760989 64.52190422342443 H 0.0 **** 0.06
16525 H 39.57614819226029 69.48676190742151 65.27976431480545 H 0.0 **** 0.06
16526 C 96.45725617541397 17.92480144737476 14.169835348864694 C 0.0 **** -0.24
16527 H 95.51872329279614 17.582898157043928 13.735072601922695 H 0.0 **** 0.06
16528 H 97.23781649005153 17.190878385808787 13.971542535429109 H 0.0 **** 0.06
16529 H 96.33606792007917 18.045650967133383 15.24664981538217 H 0.0 **** 0.06
16530 H 96.73526366027932 18.880565851666915 13.725853610395546 H 0.0 **** 0.06
16531 C 82.08817162621132 30.823847007746792 112.54439970175865 C 0.0 **** -0.24
16532 H 81.02134426005414 30.62552134307822 112.44930625107676 H 0.0 **** 0.06
16533 H 82.5225218770166 30.95332124423021 111.55218251832284 H 0.0 **** 0.06
16534 H 82.57076611513929 29.983930133583613 113.04536559617594 H 0.0 **** 0.06
16535 H 82.24005642631768 31.731111513479675 113.12835057875778 H 0.0 **** 0.06
16536 C 79.30379301762065 14.817375181852903 65.75938365746434 C 0.0 **** -0.24
16537 H 79.66478478909607 15.206687942079938 64.80826327643938 H 0.0 **** 0.06
16538 H 80.15420243159366 14.588978737043554 66.40373805228471 H 0.0 **** 0.06
16539 H 78.72639937347066 13.908980309344564 65.58470697095308 H 0.0 **** 0.06
16540 H 78.67207802125091 15.561964321619367 66.24145585487709 H 0.0 **** 0.06
16541 C 71.29715220246888 74.97658221745986 53.20334322484031 C 0.0 **** -0.24
16542 H 72.00842388457272 75.80265630537184 53.22560955357468 H 0.0 **** 0.06
16543 H 71.32516883327153 74.44770594223307 54.15590476864009 H 0.0 **** 0.06
16544 H 71.5618235828594 74.29058345148994 52.39908003876219 H 0.0 **** 0.06
16545 H 70.29346899342067 75.36665431795413 53.03333338517027 H 0.0 **** 0.06
16546 C 82.17457568219402 20.283505410703143 105.43937534661727 C 0.0 **** -0.24
16547 H 82.6286042983283 19.310570881072096 105.62661036936237 H 0.0 **** 0.06
16548 H 82.95145913276457 21.00474525567209 105.18489987320841 H 0.0 **** 0.06
16549 H 81.64798336693508 20.615978416042893 106.33439480649947 H 0.0 **** 0.06
16550 H 81.46880145038847 20.201449681739064 104.61271571189582 H 0.0 **** 0.06
16551 C 68.90615015827402 52.79014023787672 36.99067439810506 C 0.0 **** -0.24
16552 H 68.29740632884112 53.44824646882667 36.370478699026165 H 0.0 **** 0.06
16553 H 69.44890752459067 53.3844952766958 37.725228034020574 H 0.0 **** 0.06
16554 H 69.61431155292594 52.25132322090223 36.36196766375494 H 0.0 **** 0.06
16555 H 68.25997562775308 52.07714511454327 37.503765077016 H 0.0 **** 0.06
16556 C 103.5115041933425 76.76683518429971 34.76196621900124 C 0.0 **** -0.24
16557 H 102.5198741543361 76.46551070634007 34.425376052747936 H 0.0 **** 0.06
16558 H 103.50410212419108 76.89591419660292 35.84438036589401 H 0.0 **** 0.06
16559 H 103.7864954614675 77.70818105515464 34.28514406621679 H 0.0 **** 0.06
16560 H 104.23546661541424 75.99774566945635 34.49196750154064 H 0.0 **** 0.06
16561 C 49.643514967263656 112.21347338679776 32.49851556753978 C 0.0 **** -0.24
16562 H 48.901347567835074 112.10894474425203 31.706878727363005 H 0.0 **** 0.06
16563 H 50.63631923329058 112.01300343253945 32.09416904343806 H 0.0 **** 0.06
16564 H 49.4256797595813 111.50423539276755 33.296061024515836 H 0.0 **** 0.06
16565 H 49.60988962884946 113.22751637321643 32.894883606797094 H 0.0 **** 0.06
16566 C 41.59946043337851 115.39964413575792 91.83858967320009 C 0.0 **** -0.24
16567 H 42.06018776149813 114.59100349019059 92.40497039712074 H 0.0 **** 0.06
16568 H 42.29900296026722 115.76032263288637 91.08428678506107 H 0.0 **** 0.06
16569 H 41.3412633112722 116.21482144342932 92.51419438749355 H 0.0 **** 0.06
16570 H 40.69599873067921 115.03220423371458 91.3507644090929 H 0.0 **** 0.06
16571 C 97.05640648160367 115.54165778521285 22.047399814790253 C 0.0 **** -0.24
16572 H 96.65128888914165 115.04804792375512 22.931103175199155 H 0.0 **** 0.06
16573 H 97.5562102332885 114.80541852949723 21.418101388786624 H 0.0 **** 0.06
16574 H 97.77218046668474 116.30430748753683 22.354285119753428 H 0.0 **** 0.06
16575 H 96.24499808949717 116.00775579287644 21.488536133315876 H 0.0 **** 0.06
16576 C 91.68312596464386 94.62705495483053 75.71322673764013 C 0.0 **** -0.24
16577 H 91.35975364295632 94.45811306886975 74.68678752635549 H 0.0 **** 0.06
16578 H 91.363987628367 95.61779466476833 76.03668631792263 H 0.0 **** 0.06
16579 H 92.7693694966107 94.55844594465486 75.76763554312407 H 0.0 **** 0.06
16580 H 91.23804759739824 93.87265803917506 76.36311301827126 H 0.0 **** 0.06
16581 C 86.4012360511139 95.08951823701176 85.83420546245394 C 0.0 **** -0.24
16582 H 86.73415811351848 95.5570657004248 86.76056597236737 H 0.0 **** 0.06
16583 H 87.14131466996783 95.26366643877716 85.05300791517996 H 0.0 **** 0.06
16584 H 85.44623150172983 95.52111963482872 85.53259119654273 H 0.0 **** 0.06
16585 H 86.28190623082617 94.01732342106197 85.99073737126545 H 0.0 **** 0.06
16586 C 92.28521448118856 74.4322698869531 94.64414981491149 C 0.0 **** -0.24
16587 H 92.75669504071051 75.41160926144647 94.72896168645036 H 0.0 **** 0.06
16588 H 91.9768473157144 74.26526557999254 93.61255456783368 H 0.0 **** 0.06
16589 H 91.41281537869934 74.39138982783915 95.29673713503507 H 0.0 **** 0.06
16590 H 92.99738748275607 73.6608638714708 94.94072535223773 H 0.0 **** 0.06
16591 C 108.97825654364729 109.58611741860831 82.44761043701004 C 0.0 **** -0.24
16592 H 107.96199564362334 109.42735079921101 82.08916461778267 H 0.0 **** 0.06
16593 H 109.17350353595712 110.65507078329895 82.52639372809898 H 0.0 **** 0.06
16594 H 109.68417651574111 109.13784257904587 81.74791389009476 H 0.0 **** 0.06
16595 H 109.0943734801877 109.1220992289148 83.42768880210178 H 0.0 **** 0.06
16596 C 105.9636578511583 61.197126031688455 53.69515640667043 C 0.0 **** -0.24
16597 H 106.86752564436881 61.151471429032725 53.08811012070309 H 0.0 **** 0.06
16598 H 105.59467274793849 60.18756398914587 53.8737060671577 H 0.0 **** 0.06
16599 H 105.2029078999011 61.77460377089906 53.17043791536079 H 0.0 **** 0.06
16600 H 106.18980191554454 61.67584054002346 54.64738577815003 H 0.0 **** 0.06
16601 C 35.33855311716388 115.30514618835764 37.62216995931601 C 0.0 **** -0.24
16602 H 34.41644720351559 115.8209825632565 37.88697740022061 H 0.0 **** 0.06
16603 H 35.13712666302479 114.24036034565543 37.501770255501704 H 0.0 **** 0.06
16604 H 36.07582507921046 115.44839837149176 38.41238413561154 H 0.0 **** 0.06
16605 H 35.72509435502417 115.70995136940527 36.686487198074566 H 0.0 **** 0.06
16606 C 0.8525511217886219 103.3281369702031 64.78508770832568 C 0.0 **** -0.24
16607 H 0.5646103507440614 103.93603850931216 63.926710488578294 H 0.0 **** 0.06
16608 H 1.8897407387416365 103.01015470882895 64.67282635142516 H 0.0 **** 0.06
16609 H 0.2073319951377357 102.45131795527399 64.84101852307975 H 0.0 **** 0.06
16610 H 0.7483905726973887 103.91445273785938 65.69685567857846 H 0.0 **** 0.06
16611 C 21.423520197275707 98.65832966106944 67.35688014246648 C 0.0 **** -0.24
16612 H 22.091888985750103 99.22328415705563 66.70680156539566 H 0.0 **** 0.06
16613 H 20.864227634264267 97.93597738963571 66.76193762010104 H 0.0 **** 0.06
16614 H 20.729465732030093 99.341635800736 67.84639181826753 H 0.0 **** 0.06
16615 H 22.00929027474311 98.13287638495073 68.11091781255959 H 0.0 **** 0.06
16616 C 98.96359406832207 106.9030118157599 38.69873017336809 C 0.0 **** -0.24
16617 H 99.84611808509332 106.35947683685669 39.034166555414686 H 0.0 **** 0.06
16618 H 99.00301854849079 107.02804772119273 37.61558825440848 H 0.0 **** 0.06
16619 H 98.93617670462682 107.88310442091549 39.176738986668326 H 0.0 **** 0.06
16620 H 98.06841049825252 106.34298117340589 38.968063752773446 H 0.0 **** 0.06
16621 C 80.40565848487131 24.631037035149063 45.08982438721026 C 0.0 **** -0.24
16622 H 80.9624860142601 24.504254995847077 46.01767993152242 H 0.0 **** 0.06
16623 H 81.09949656606301 24.840707252409118 44.27549478924021 H 0.0 **** 0.06
16624 H 79.70684193986185 25.461613377782555 45.19506694715409 H 0.0 **** 0.06
16625 H 79.85276036258796 23.717163112600076 44.870200320420395 H 0.0 **** 0.06
16626 C 104.72263860956235 18.07412474670831 96.09146546509605 C 0.0 **** -0.24
16627 H 104.58694635169934 17.91290062986667 97.16054680255696 H 0.0 **** 0.06
16628 H 105.33393605296243 17.271082145083128 95.67795530530654 H 0.0 **** 0.06
16629 H 105.22024475434517 19.03045583794473 95.92897684982994 H 0.0 **** 0.06
16630 H 103.75076776221323 18.082110358577516 95.59883092128995 H 0.0 **** 0.06
16631 C 34.74637194238727 67.25079811075403 41.521462806514734 C 0.0 **** -0.24
16632 H 34.07940879936169 66.40593119129602 41.693575030020305 H 0.0 **** 0.06
16633 H 35.14897093841094 67.196070725867 40.51052242359431 H 0.0 **** 0.06
16634 H 35.56510789246636 67.21915197793928 42.241611836366985 H 0.0 **** 0.06
16635 H 34.19287366164025 68.18206501042891 41.643011913469714 H 0.0 **** 0.06
16636 C 103.40964267214562 10.584493236313676 14.981333565958252 C 0.0 **** -0.24
16637 H 103.82457614213097 9.796001634514312 14.352961224277948 H 0.0 **** 0.06
16638 H 104.19923884647328 11.286768287818006 15.25156731157358 H 0.0 **** 0.06
16639 H 102.989191741809 10.144556815484975 15.884719098139044 H 0.0 **** 0.06
16640 H 102.62723170571284 11.111078309652953 14.434661080784707 H 0.0 **** 0.06
16641 C 83.2388933726628 3.964984389570361 67.14783706542374 C 0.0 **** -0.24
16642 H 84.03013038580485 3.2398484008141395 66.95278977780077 H 0.0 **** 0.06
16643 H 83.51531178098429 4.582144557161314 68.00258833528426 H 0.0 **** 0.06
16644 H 82.30938361947403 3.4378783129978956 67.36385414594298 H 0.0 **** 0.06
16645 H 83.10211634170611 4.597251000665494 66.27101981906179 H 0.0 **** 0.06
16646 C 87.3105500002658 5.438496347056709 82.69533008254163 C 0.0 **** -0.24
16647 H 86.85842939732464 5.144524333908839 81.74820920492238 H 0.0 **** 0.06
16648 H 87.2521513842245 4.608564434746958 83.39936641908494 H 0.0 **** 0.06
16649 H 86.77521967350737 6.298155079544367 83.10115021874128 H 0.0 **** 0.06
16650 H 88.35485909651584 5.705220617757416 82.53190044078343 H 0.0 **** 0.06
16651 C 36.69082286832179 30.546906075787604 76.83057682812664 C 0.0 **** -0.24
16652 H 36.440545025628694 31.53316496808212 77.21951881447637 H 0.0 **** 0.06
16653 H 35.86154043759953 30.17272470225973 76.22941831212411 H 0.0 **** 0.06
16654 H 36.874659565506676 29.865119851620506 77.66002307867019 H 0.0 **** 0.06
16655 H 37.585939637726824 30.616527378198214 76.21207264267463 H 0.0 **** 0.06
16656 C 79.44348981560442 96.54906520150845 104.4762057144037 C 0.0 **** -0.24
16657 H 80.18877857497425 96.8976395311333 103.76088257976642 H 0.0 **** 0.06
16658 H 79.0704721364098 95.57342285922871 104.1654045601075 H 0.0 **** 0.06
16659 H 78.6185062748057 97.25980940534073 104.51461585208983 H 0.0 **** 0.06
16660 H 79.89909929078614 96.46662546330487 105.46288106048371 H 0.0 **** 0.06
16661 C 64.55374823552171 56.188334011945486 39.90264190142193 C 0.0 **** -0.24
16662 H 64.67410082488087 57.09767947693959 40.492105790747985 H 0.0 **** 0.06
16663 H 65.24191131618707 55.425793532742745 40.26775169272861 H 0.0 **** 0.06
16664 H 64.77051368327719 56.40356733972153 38.85576656249566 H 0.0 **** 0.06
16665 H 63.52914664235473 55.829383611518395 39.99500362101031 H 0.0 **** 0.06
16666 C 61.23995348282676 28.33287210917237 24.767442064423392 C 0.0 **** -0.24
16667 H 61.85076370639456 29.226504552835436 24.644916966214794 H 0.0 **** 0.06
16668 H 60.222815421316284 28.53969892679899 24.432484653090853 H 0.0 **** 0.06
16669 H 61.224960440881205 28.043506094057136 25.818106643612282 H 0.0 **** 0.06
16670 H 61.66076029460396 27.521499710057782 24.17210173345609 H 0.0 **** 0.06
16671 C 70.79883289065981 114.3147069692001 49.783878421941324 C 0.0 **** -0.24
16672 H 70.07552278403824 114.70848910089418 50.49896146668229 H 0.0 **** 0.06
16673 H 70.62175819709569 113.24768362665007 49.63898379849964 H 0.0 **** 0.06
16674 H 71.80744782028557 114.46713365510503 50.16723667360401 H 0.0 **** 0.06
16675 H 70.68872437332146 114.83424891735973 48.83229458340287 H 0.0 **** 0.06
16676 C 69.2872772898129 39.500478709148226 7.509329745276858 C 0.0 **** -0.24
16677 H 70.37389914655364 39.47233697125924 7.582946809353274 H 0.0 **** 0.06
16678 H 68.88463934382193 40.12277912164038 8.308468925443961 H 0.0 **** 0.06
16679 H 68.89067057719679 38.489159912100575 7.6020766715530215 H 0.0 **** 0.06
16680 H 68.99876590707679 39.916360046880584 6.54354638636994 H 0.0 **** 0.06
16681 C 47.192328430126786 105.28962383754393 37.483583864384514 C 0.0 **** -0.24
16682 H 48.147896987390865 105.58462219724076 37.916214433000135 H 0.0 **** 0.06
16683 H 46.38470230074301 105.81834297153428 37.99121635524105 H 0.0 **** 0.06
16684 H 47.055827480947904 104.21473163869744 37.603591465578916 H 0.0 **** 0.06
16685 H 47.18075897125245 105.54122072254032 36.42241573944432 H 0.0 **** 0.06
16686 C 113.76167458384913 9.000151655685386 0.0069195937516468575 C 0.0 **** -0.24
16687 H 112.76301201233171 8.602818837765213 -0.17599373475279378 H 0.0 **** 0.06
16688 H 113.86875116203775 9.960453493308712 -0.49758862742039867 H 0.0 **** 0.06
16689 H 114.50580063232046 8.302616465976666 -0.3787041702836689 H 0.0 **** 0.06
16690 H 113.90997277103402 9.133302891912198 1.0776636540880418 H 0.0 **** 0.06
16691 C 36.1307194699174 63.51002566636919 9.813295358621957 C 0.0 **** -0.24
16692 H 35.76104147134883 62.65498513180506 9.247645826001985 H 0.0 **** 0.06
16693 H 36.17137416541665 63.25394288617139 10.873291827613173 H 0.0 **** 0.06
16694 H 35.46048321798198 64.35752003509185 9.670238706161399 H 0.0 **** 0.06
16695 H 37.12847023565848 63.77266122626173 9.464181584260501 H 0.0 **** 0.06
16696 C 104.66432697598431 73.0585104521331 21.140239897703935 C 0.0 **** -0.24
16697 H 104.14269370221848 73.93070434873977 21.534545743225237 H 0.0 **** 0.06
16698 H 103.9616662051113 72.43680707593157 20.58482893020107 H 0.0 **** 0.06
16699 H 105.08477604830624 72.48262876362827 21.965581946844736 H 0.0 **** 0.06
16700 H 105.46565387533997 73.38311804610237 20.477433296347783 H 0.0 **** 0.06
16701 C 3.8486094825126997 52.89561157025142 68.07138046321272 C 0.0 **** -0.24
16702 H 3.4457475486988187 53.60116356350503 68.79801049332607 H 0.0 **** 0.06
16703 H 3.126687634540076 52.750768163073644 67.26712003452201 H 0.0 **** 0.06
16704 H 4.043529608136737 51.941478032852245 68.56080449213042 H 0.0 **** 0.06
16705 H 4.77806699593981 53.28864102284838 67.65876300904516 H 0.0 **** 0.06
16706 C 105.34755539777531 48.39654807872352 30.326430129895954 C 0.0 **** -0.24
16707 H 104.53651735783392 48.26092381695787 29.610219287893926 H 0.0 **** 0.06
16708 H 105.01224843014907 49.04807709457902 31.134088967154327 H 0.0 **** 0.06
16709 H 106.20242405077889 48.84978421189818 29.825617702720947 H 0.0 **** 0.06
16710 H 105.63592477849123 47.428566348310135 30.73585534325197 H 0.0 **** 0.06
16711 C 26.580141937890517 2.6519096576520838 76.78868014088125 C 0.0 **** -0.24
16712 H 26.08958856549947 3.593673310454676 76.54281806584882 H 0.0 **** 0.06
16713 H 27.60212833539481 2.665225328784743 76.408620795716 H 0.0 **** 0.06
16714 H 26.033212836794405 1.8274021934532243 76.33326334908473 H 0.0 **** 0.06
16715 H 26.59655966718026 2.523439170534459 77.8708757497913 H 0.0 **** 0.06
16716 C 43.029667519785654 97.71959552616556 38.397153814196 C 0.0 **** -0.24
16717 H 41.94125679828324 97.66743536430113 38.430365158320626 H 0.0 **** 0.06
16718 H 43.3442041668244 98.76296870927854 38.43500488058564 H 0.0 **** 0.06
16719 H 43.38657869106827 97.26514309846186 37.47298610485623 H 0.0 **** 0.06
16720 H 43.4455132894403 97.1837012279617 39.25029984127791 H 0.0 **** 0.06
16721 C 1.4602763150280396 58.495206580097715 102.93714623655828 C 0.0 **** -0.24
16722 H 1.5817720973757616 58.82545847089111 101.90491075574212 H 0.0 **** 0.06
16723 H 1.7610155839238644 57.45086871288504 103.02158480480296 H 0.0 **** 0.06
16724 H 0.41649565126272137 58.59952599268492 103.23205791233994 H 0.0 **** 0.06
16725 H 2.084300203366979 59.107352690460516 103.58893755996615 H 0.0 **** 0.06
16726 C 84.83772675761003 103.6804605957927 3.470014409387261 C 0.0 **** -0.24
16727 H 83.7602095845183 103.62869026396473 3.3177972624583063 H 0.0 **** 0.06
16728 H 85.29442234675986 102.74131024420595 3.1551042581535924 H 0.0 **** 0.06
16729 H 85.04782156227537 103.85114137718242 4.5253853109558015 H 0.0 **** 0.06
16730 H 85.24863032491777 104.49972770725712 2.8795296532224306 H 0.0 **** 0.06
16731 C 60.40861717350771 66.00618772198905 15.2918671439528 C 0.0 **** -0.24
16732 H 60.46143845287969 65.69595967262941 14.248380195182392 H 0.0 **** 0.06
16733 H 61.08066034797713 65.38897339465518 15.888613349617543 H 0.0 **** 0.06
16734 H 59.38736776262931 65.88856907799422 15.654453765442582 H 0.0 **** 0.06
16735 H 60.70508977580022 67.05265316863475 15.374599951568513 H 0.0 **** 0.06
16736 C 106.81661640138206 26.876772382198283 64.5937033309645 C 0.0 **** -0.24
16737 H 107.88694661472285 27.00702232457627 64.43704866375401 H 0.0 **** 0.06
16738 H 106.54128073023723 25.843830094568773 64.37771692349838 H 0.0 **** 0.06
16739 H 106.26728403568441 27.54499044554416 63.93074774552667 H 0.0 **** 0.06
16740 H 106.5693808988797 27.10946590858373 65.62989488286411 H 0.0 **** 0.06
16741 C 102.94896270647304 33.33448659362919 80.85243639525618 C 0.0 **** -0.24
16742 H 103.22713625617074 32.65377354705258 80.04794228677343 H 0.0 **** 0.06
16743 H 101.91182823741288 33.154327982134106 81.13783367029741 H 0.0 **** 0.06
16744 H 103.05888777966493 34.3632381554277 80.51176035576292 H 0.0 **** 0.06
16745 H 103.59692768824637 33.16470208946929 81.71173384107516 H 0.0 **** 0.06
16746 C 12.650684854363202 34.7636450292614 56.12870148637107 C 0.0 **** -0.24
16747 H 13.388979086429114 34.19163547845744 55.5668578731971 H 0.0 **** 0.06
16748 H 11.868443498386863 35.10865588863902 55.4517313350872 H 0.0 **** 0.06
16749 H 13.13342946603547 35.622257440054454 56.59509928223163 H 0.0 **** 0.06
16750 H 12.210561859529037 34.13077313960417 56.899828919818944 H 0.0 **** 0.06
16751 C 41.14110522707483 24.183080861322424 0.7178472998971301 C 0.0 **** -0.24
16752 H 41.17491399453246 23.119526782410702 0.9513299947558664 H 0.0 **** 0.06
16753 H 40.233702033621086 24.40266466409537 0.15422063380475493 H 0.0 **** 0.06
16754 H 42.01362697294428 24.451841976028618 0.12078203629300788 H 0.0 **** 0.06
16755 H 41.14318928139801 24.758595837829716 1.6428465708103772 H 0.0 **** 0.06
16756 C 58.89536780230651 46.02879349644888 6.731001604243929 C 0.0 **** -0.24
16757 H 58.61366011541523 45.57802252741594 5.780083735757145 H 0.0 **** 0.06
16758 H 59.981609234842765 46.0302077933751 6.824575836221811 H 0.0 **** 0.06
16759 H 58.46154684453249 45.452966820034476 7.548247922546608 H 0.0 **** 0.06
16760 H 58.52560907274828 47.053113651177966 6.77168610465111 H 0.0 **** 0.06
16761 C 41.1631072517244 67.38092575720475 115.86038883117291 C 0.0 **** -0.24
16762 H 40.62850431628208 66.4690710851388 116.1259303437389 H 0.0 **** 0.06
16763 H 42.236831829042174 67.20391677865906 115.92827807053433 H 0.0 **** 0.06
16764 H 40.88141644103183 68.17964516181206 116.54633353600389 H 0.0 **** 0.06
16765 H 40.90594544612851 67.66876127674729 114.84024023242863 H 0.0 **** 0.06
16766 C 12.9064573253643 106.49615935086877 47.63964603335114 C 0.0 **** -0.24
16767 H 13.842499519780915 106.28715383320639 47.122482410021206 H 0.0 **** 0.06
16768 H 12.17214966685006 106.86980955404312 46.92500876624899 H 0.0 **** 0.06
16769 H 13.078287526769572 107.24699132729114 48.41080767097998 H 0.0 **** 0.06
16770 H 12.532652818950254 105.58141650697235 48.099100323882084 H 0.0 **** 0.06
16771 C 51.428476702914054 98.418527741925 33.60937680310002 C 0.0 **** -0.24
16772 H 51.448998370447725 98.39802933759722 32.52018344172768 H 0.0 **** 0.06
16773 H 50.396965804826436 98.49482338811049 33.95210957084362 H 0.0 **** 0.06
16774 H 51.99471218399293 99.27905736698426 33.96752729184195 H 0.0 **** 0.06
16775 H 51.87533934830719 97.5034181844917 33.99795347280033 H 0.0 **** 0.06
16776 C 83.19429316317877 87.52914532508439 77.89639805486212 C 0.0 **** -0.24
16777 H 83.33645500363906 88.05677162232956 78.83885971644122 H 0.0 **** 0.06
16778 H 82.13486800458605 87.5218217890322 77.64104491307108 H 0.0 **** 0.06
16779 H 83.55086861935104 86.50413380094139 77.99650728170639 H 0.0 **** 0.06
16780 H 83.75483866541896 88.03295848152993 77.10875878769474 H 0.0 **** 0.06
16781 C 87.83119223555912 100.88315437956145 87.85973757277029 C 0.0 **** -0.24
16782 H 88.7373361956815 101.14648970465524 88.40421081864773 H 0.0 **** 0.06
16783 H 86.95795000114234 101.15161884801216 88.45627467858696 H 0.0 **** 0.06
16784 H 87.82209561847846 99.81080430304789 87.66528165585447 H 0.0 **** 0.06
16785 H 87.80507877908263 101.42452282312456 86.91323298385652 H 0.0 **** 0.06
16786 C 71.23811918629755 31.750931046758545 32.08644115345681 C 0.0 **** -0.24
16787 H 70.20954914777036 31.46876006878849 31.861835354928736 H 0.0 **** 0.06
16788 H 71.91049498480835 31.26949519135588 31.3755741340128 H 0.0 **** 0.06
16789 H 71.4894853375204 31.43243610538662 33.098257639381735 H 0.0 **** 0.06
16790 H 71.34186908440378 32.83390513455391 32.0098205586056 H 0.0 **** 0.06
16791 C 21.429304496168356 7.86826182112577 52.80039273865117 C 0.0 **** -0.24
16792 H 22.455782444996714 7.743705558978576 53.14484345509038 H 0.0 **** 0.06
16793 H 21.419762233313293 7.956376751988756 51.71409432349654 H 0.0 **** 0.06
16794 H 21.00495209376453 8.770137339614479 53.24271185264604 H 0.0 **** 0.06
16795 H 20.838185165949653 7.00341156258105 53.101152621611845 H 0.0 **** 0.06
16796 C 40.24652358584251 38.79866936052562 37.154815006926526 C 0.0 **** -0.24
16797 H 39.520505495974305 38.7566808718548 37.967045443123936 H 0.0 **** 0.06
16798 H 40.20223920574631 39.77961867409064 36.67924164534986 H 0.0 **** 0.06
16799 H 40.01413454456912 38.02721640521668 36.420044105043544 H 0.0 **** 0.06
16800 H 41.24738345185668 38.631677442118416 37.552313125162044 H 0.0 **** 0.06
16801 C 3.552387592307724 61.267922494611696 34.94173645569725 C 0.0 **** -0.24
16802 H 3.2011765424249177 61.742257789693895 35.8586816225 H 0.0 **** 0.06
16803 H 4.239347003632844 60.45942936866163 35.192006695038685 H 0.0 **** 0.06
16804 H 4.066707907230182 62.005680259682606 34.32669857887515 H 0.0 **** 0.06
16805 H 2.7013421395357113 60.86524453868145 34.3922415325095 H 0.0 **** 0.06
16806 C 37.991272422283885 100.03434196253329 113.76937873293934 C 0.0 **** -0.24
16807 H 38.62696100301537 100.10933962804991 114.65183493728318 H 0.0 **** 0.06
16808 H 38.37254351559625 100.69581849206664 112.99035382650129 H 0.0 **** 0.06
16809 H 36.973712454979534 100.32663075280078 114.02827739659739 H 0.0 **** 0.06
16810 H 37.993787453634184 99.00710532421205 113.40711498365607 H 0.0 **** 0.06
16811 C 66.11516987937341 108.4133411631131 97.06352442117954 C 0.0 **** -0.24
16812 H 66.48201144980786 108.5436147122295 96.04522061554518 H 0.0 **** 0.06
16813 H 65.40829046012877 109.20800194806407 97.29897970866679 H 0.0 **** 0.06
16814 H 66.95301529825659 108.4533398598175 97.75902687789876 H 0.0 **** 0.06
16815 H 65.61841586648745 107.44654178425213 97.14877113179779 H 0.0 **** 0.06
16816 C 95.05978181361724 64.00335190008266 104.31326190823557 C 0.0 **** -0.24
16817 H 95.25391158229462 64.84395141131179 103.64686963328043 H 0.0 **** 0.06
16818 H 94.39051850400836 63.297786724565015 103.82176733639288 H 0.0 **** 0.06
16819 H 94.59558822263745 64.36716045538012 105.22966802595474 H 0.0 **** 0.06
16820 H 95.99976126047886 63.5065414408038 104.55407631098348 H 0.0 **** 0.06
16821 C 91.75782801361144 60.089706156414934 27.96075032072764 C 0.0 **** -0.24
16822 H 91.86223918828408 59.68221206819254 28.966692402849134 H 0.0 **** 0.06
16823 H 92.18421866255748 61.0925494103447 27.930717107445616 H 0.0 **** 0.06
16824 H 90.70217809201334 60.134497793018284 27.695621245550967 H 0.0 **** 0.06
16825 H 92.28425642379635 59.44864008386526 27.25366477326321 H 0.0 **** 0.06
16826 C 3.4290569547702603 94.78777810523928 64.58367263528476 C 0.0 **** -0.24
16827 H 4.51282294395466 94.67143215549305 64.56524783931808 H 0.0 **** 0.06
16828 H 3.137927809629673 95.33988847954436 65.4770804313458 H 0.0 **** 0.06
16829 H 2.9587677437342847 93.80387951079848 64.59499691351718 H 0.0 **** 0.06
16830 H 3.107436498429479 95.33373643244204 63.6965067162285 H 0.0 **** 0.06
16831 C 36.5790144841411 48.681929350332034 48.93468859558874 C 0.0 **** -0.24
16832 H 37.4940102206983 49.218864336754166 49.1846329295668 H 0.0 **** 0.06
16833 H 35.7452948793693 49.3836452590406 48.891665010905875 H 0.0 **** 0.06
16834 H 36.38094113869906 47.92818872419991 49.697372426569515 H 0.0 **** 0.06
16835 H 36.696375034342594 48.19585837117853 47.96566325412217 H 0.0 **** 0.06
16836 C 113.1051206612803 4.599768579173883 20.76539054309838 C 0.0 **** -0.24
16837 H 113.26724989849714 4.766698477142981 21.82997029042748 H 0.0 **** 0.06
16838 H 112.26999418752757 3.913615817030447 20.628574429153403 H 0.0 **** 0.06
16839 H 114.0048610674603 4.170638349474558 20.32525537989643 H 0.0 **** 0.06
16840 H 112.8795283463773 5.549259768773041 20.27930497790194 H 0.0 **** 0.06
16841 C 38.928967815634024 37.9752956462751 65.32359641549603 C 0.0 **** -0.24
16842 H 38.67025980101329 38.99987606999741 65.05458391166792 H 0.0 **** 0.06
16843 H 39.3878179637737 37.48046879294401 64.46659666052665 H 0.0 **** 0.06
16844 H 38.026404041900406 37.43768580674944 65.61326487719673 H 0.0 **** 0.06
16845 H 39.6310073893207 37.984009744656476 66.15692049029234 H 0.0 **** 0.06
16846 C 106.07579333564415 61.60720683830374 16.302542627897665 C 0.0 **** -0.24
16847 H 105.75975338452955 61.86093586298665 15.29101217924 H 0.0 **** 0.06
16848 H 107.13546407413838 61.35076195154659 16.297489543797212 H 0.0 **** 0.06
16849 H 105.49766066915785 60.75546062907057 16.660780769049467 H 0.0 **** 0.06
16850 H 105.91112133198233 62.46059826446805 16.960474059335453 H 0.0 **** 0.06
16851 C 23.699135479641114 42.37701300132818 45.533693030986235 C 0.0 **** -0.24
16852 H 23.889287622514246 43.25431273424152 44.91508174956728 H 0.0 **** 0.06
16853 H 22.784000954535315 42.529647605393905 46.10698188325139 H 0.0 **** 0.06
16854 H 24.53425443354169 42.22586868283571 46.21657310548689 H 0.0 **** 0.06
16855 H 23.58690634771807 41.50036937234961 44.89625669275453 H 0.0 **** 0.06
16856 C 52.101479921011986 61.04799781540453 1.8783862350780396 C 0.0 **** -0.24
16857 H 52.635508569266555 61.95140421640485 1.5811272200458575 H 0.0 **** 0.06
16858 H 52.601232239088155 60.17669750068211 1.4555435762816273 H 0.0 **** 0.06
16859 H 51.07662866992369 61.09430791416446 1.510809287793279 H 0.0 **** 0.06
16860 H 52.09466147656976 60.971842944696846 2.9654094466030188 H 0.0 **** 0.06
16861 C 67.9848144259825 70.36073092377184 100.56833025937453 C 0.0 **** -0.24
16862 H 67.23986667843587 71.05304621360123 100.95891683527674 H 0.0 **** 0.06
16863 H 67.7626950039683 69.35221734473303 100.91726561514605 H 0.0 **** 0.06
16864 H 68.97373860675965 70.65643029824344 100.91700107109187 H 0.0 **** 0.06
16865 H 67.96277530538934 70.38087554170927 99.47793715368084 H 0.0 **** 0.06
16866 C 59.13244383143268 17.476935872995426 38.53892430299091 C 0.0 **** -0.24
16867 H 59.81030860407958 16.6786037023123 38.83956129184202 H 0.0 **** 0.06
16868 H 59.63015670521048 18.121391008483243 37.81390632994297 H 0.0 **** 0.06
16869 H 58.85006459834932 18.062397947035493 39.41377553000602 H 0.0 **** 0.06
16870 H 58.238918746726824 17.04419169083144 38.087712584408195 H 0.0 **** 0.06
16871 C 2.2442935637272967 105.61757209354461 82.84161525775029 C 0.0 **** -0.24
16872 H 3.225803825764501 105.8692880310191 82.43976671373768 H 0.0 **** 0.06
16873 H 1.5950726832243447 105.28449671174907 82.03069066086232 H 0.0 **** 0.06
16874 H 1.808941709167641 106.49641760839762 83.31685820426416 H 0.0 **** 0.06
16875 H 2.3457857728317606 104.81966553556857 83.57643288321617 H 0.0 **** 0.06
16876 C 79.78267041379382 100.11837267184352 109.5769739962023 C 0.0 **** -0.24
16877 H 79.36888801808465 100.5068786016878 110.50654847999854 H 0.0 **** 0.06
16878 H 80.71371002487354 99.58899210255426 109.78570146011407 H 0.0 **** 0.06
16879 H 79.98020432799564 100.9444995414626 108.89341321647623 H 0.0 **** 0.06
16880 H 79.06920778688692 99.43232617963407 109.12033425779487 H 0.0 **** 0.06
16881 C 77.12059868192983 115.73196819408375 55.04650170915757 C 0.0 **** -0.24
16882 H 76.33423548756684 116.3835842141757 55.42832638156268 H 0.0 **** 0.06
16883 H 77.62075519215927 115.24010145007898 55.880689408275934 H 0.0 **** 0.06
16884 H 77.8428931049454 116.32490489085423 54.48636035744 H 0.0 **** 0.06
16885 H 76.68162956597371 114.97985787724274 54.391236327912736 H 0.0 **** 0.06
16886 C 104.99766847768505 88.3221084508704 23.245947415465565 C 0.0 **** -0.24
16887 H 105.01559077268503 87.39227007107677 22.67695008182494 H 0.0 **** 0.06
16888 H 104.52334567258804 88.14804996521896 24.21164408617915 H 0.0 **** 0.06
16889 H 104.43435379261183 89.07485236863148 22.69399656432313 H 0.0 **** 0.06
16890 H 106.0187732378199 88.673357351174 23.399449590627228 H 0.0 **** 0.06
16891 C 30.789428676734076 92.92695905822382 16.37449067339139 C 0.0 **** -0.24
16892 H 29.990513234936714 92.3307437214564 15.935727824074302 H 0.0 **** 0.06
16893 H 31.52310311698818 92.26715232323025 16.838116027502345 H 0.0 **** 0.06
16894 H 30.372369844716104 93.59368238010188 17.13036274813868 H 0.0 **** 0.06
16895 H 31.27254113964233 93.51729440235431 15.595563132925683 H 0.0 **** 0.06
16896 C 74.37134315129884 26.27758496671032 109.71543592111428 C 0.0 **** -0.24
16897 H 74.44390211225698 25.43895742472546 109.02252565975948 H 0.0 **** 0.06
16898 H 75.13912437063931 27.013922718181618 109.47434804108593 H 0.0 **** 0.06
16899 H 74.51658344830736 25.92035359261928 110.73483355844598 H 0.0 **** 0.06
16900 H 73.38645268352249 26.73647930642528 109.62736595099398 H 0.0 **** 0.06
16901 C 54.00782973089201 59.00861565909764 62.854728084533036 C 0.0 **** -0.24
16902 H 54.29723748014499 57.960413323702255 62.927532994047624 H 0.0 **** 0.06
16903 H 54.15032205865837 59.4930441014879 63.821051846038344 H 0.0 **** 0.06
16904 H 52.95875050059833 59.076704987713356 62.56504338712614 H 0.0 **** 0.06
16905 H 54.62348250956717 59.50511715024953 62.10533871709633 H 0.0 **** 0.06
16906 C 92.50300001032096 87.23081241504343 49.138016659932 C 0.0 **** -0.24
16907 H 93.55059537614068 87.281797776382 48.842408881155244 H 0.0 **** 0.06
16908 H 92.43140008167495 86.8641488895858 50.16136693730994 H 0.0 **** 0.06
16909 H 91.97023574975032 86.55339077194424 48.47037698484976 H 0.0 **** 0.06
16910 H 92.05971278325981 88.22454287309444 49.076301599315634 H 0.0 **** 0.06
16911 C 61.05328483810496 107.89719849883818 104.26056798574868 C 0.0 **** -0.24
16912 H 61.78779162203318 107.11412012515223 104.44945317701831 H 0.0 **** 0.06
16913 H 61.51884398162082 108.70215243287902 103.69031759929459 H 0.0 **** 0.06
16914 H 60.68671168392214 108.28789536364803 105.20955302651251 H 0.0 **** 0.06
16915 H 60.21982849142296 107.48409911392417 103.69209899743197 H 0.0 **** 0.06
16916 C 75.19355284542733 39.240546186469295 43.60722260602415 C 0.0 **** -0.24
16917 H 75.47030967289508 39.08256650318127 44.64929054794257 H 0.0 **** 0.06
16918 H 74.77360968500234 38.32052469628472 43.19855911349771 H 0.0 **** 0.06
16919 H 76.07834814807119 39.52163053175556 43.03513128683693 H 0.0 **** 0.06
16920 H 74.45272381879704 40.037320680997894 43.544738346585575 H 0.0 **** 0.06
16921 C 42.87562948561467 35.95730754114618 6.719205456146554 C 0.0 **** -0.24
16922 H 42.51639675628297 36.89450167542691 6.294141281473173 H 0.0 **** 0.06
16923 H 42.06794488666446 35.47482322152052 7.269884165155702 H 0.0 **** 0.06
16924 H 43.706749389782715 36.15975652560326 7.394171843115643 H 0.0 **** 0.06
16925 H 43.212034436532406 35.30028188858023 5.9156896251429885 H 0.0 **** 0.06
16926 C 107.09668205005266 34.761280358013835 70.22650771280607 C 0.0 **** -0.24
16927 H 106.93744819545407 35.41746115786515 71.08218106856668 H 0.0 **** 0.06
16928 H 106.25187101664443 34.080505310027206 70.12932170105785 H 0.0 **** 0.06
16929 H 108.01171355432905 34.187121583841645 70.37585853270531 H 0.0 **** 0.06
16930 H 107.18782700826773 35.36123445432787 69.32067314068658 H 0.0 **** 0.06
16931 C 74.30388743684517 61.86269206065492 2.766340263195346 C 0.0 **** -0.24
16932 H 74.78107927373406 62.633617461762455 3.3708694157069203 H 0.0 **** 0.06
16933 H 74.50136238699514 60.88400934155436 3.2039443599848454 H 0.0 **** 0.06
16934 H 74.70347548219718 61.895963580438675 1.7527141188302693 H 0.0 **** 0.06
16935 H 73.22839461157406 62.038127056383175 2.738585865562456 H 0.0 **** 0.06
16936 C 45.981536443461096 19.452153708068153 81.99453586126458 C 0.0 **** -0.24
16937 H 45.449533271844984 18.557250822809436 81.67252658327146 H 0.0 **** 0.06
16938 H 46.07119212466057 19.450882567560598 83.0810448681876 H 0.0 **** 0.06
16939 H 45.43109352332124 20.337460854990326 81.67575628696807 H 0.0 **** 0.06
16940 H 46.97587727113478 19.462808583201564 81.54757011896338 H 0.0 **** 0.06
16941 C 87.78080772875637 96.51365675751941 67.58991764600438 C 0.0 **** -0.24
16942 H 88.13203200509889 95.88527529778135 68.40865376244955 H 0.0 **** 0.06
16943 H 88.62110465089276 96.7762422607983 66.947143582841 H 0.0 **** 0.06
16944 H 87.3348204510585 97.42242307885323 67.99582497060021 H 0.0 **** 0.06
16945 H 87.03411315341927 95.97014775616117 67.0105708078463 H 0.0 **** 0.06
16946 C 27.494522978416057 100.21623938096613 21.697934820395318 C 0.0 **** -0.24
16947 H 27.354906838578017 99.14531219614862 21.55193883026851 H 0.0 **** 0.06
16948 H 26.89445114092797 100.5489464362852 22.545473265618142 H 0.0 **** 0.06
16949 H 27.181918961526605 100.74893471767665 20.800520819461894 H 0.0 **** 0.06
16950 H 28.5468020852648 100.4216770816385 21.895217876985328 H 0.0 **** 0.06
16951 C 26.317933921380856 74.43643139394864 35.93653779408555 C 0.0 **** -0.24
16952 H 25.817142252568793 73.48562658076604 36.11822832909829 H 0.0 **** 0.06
16953 H 26.689089667163543 74.83577177461302 36.88104522989747 H 0.0 **** 0.06
16954 H 25.611475355098072 75.13980135063606 35.495901271595585 H 0.0 **** 0.06
16955 H 27.15297959545928 74.28305952838932 35.25337433267549 H 0.0 **** 0.06
16956 C 45.11151491744414 2.992576899122776 38.82631497537153 C 0.0 **** -0.24
16957 H 44.83417657245107 2.7679737057286946 39.85697034355496 H 0.0 **** 0.06
16958 H 45.818580910042925 3.8224998196368407 38.81418132766407 H 0.0 **** 0.06
16959 H 44.22025105212586 3.265603154836908 38.26176390386502 H 0.0 **** 0.06
16960 H 45.57275373782258 2.114068765187918 38.37532522787751 H 0.0 **** 0.06
16961 C 112.03644102407009 103.323255536081 85.96616708673149 C 0.0 **** -0.24
16962 H 112.54942209669355 103.71100470824763 85.08547780544303 H 0.0 **** 0.06
16963 H 111.7266606956019 102.29399614157836 85.78111605266402 H 0.0 **** 0.06
16964 H 111.15908791779935 103.9352975318204 86.1727333341609 H 0.0 **** 0.06
16965 H 112.71049585504008 103.35299102198508 86.8218886566516 H 0.0 **** 0.06
16966 C 106.66320081378558 70.75657549962858 76.25189822868532 C 0.0 **** -0.24
16967 H 105.81662409900235 70.06984094619092 76.21857935442259 H 0.0 **** 0.06
16968 H 107.14612722375642 70.69080947610784 77.22732352963193 H 0.0 **** 0.06
16969 H 106.3108523268549 71.77533297070865 76.08843462705168 H 0.0 **** 0.06
16970 H 107.3773023191709 70.48916881863047 75.47297508430641 H 0.0 **** 0.06
16971 C 85.20336832882728 17.526153939910902 100.88296498609338 C 0.0 **** -0.24
16972 H 85.810863111153 18.39138668384105 100.61634919533526 H 0.0 **** 0.06
16973 H 84.24983437273076 17.576098574791736 100.35624196381761 H 0.0 **** 0.06
16974 H 85.02527809173117 17.52477222062673 101.95887324441634 H 0.0 **** 0.06
16975 H 85.72761172720357 16.61376790954496 100.60038740443375 H 0.0 **** 0.06
16976 C 54.7610471526755 31.454368621979604 6.833475680070194 C 0.0 **** -0.24
16977 H 55.02753141623751 31.141584695603086 7.84320134744388 H 0.0 **** 0.06
16978 H 54.597849219909335 32.53219367821062 6.8179462154794805 H 0.0 **** 0.06
16979 H 53.84977828782229 30.943402310118245 6.523257986853082 H 0.0 **** 0.06
16980 H 55.571226948840746 31.199364055675183 6.148942239445645 H 0.0 **** 0.06
16981 C 98.45084899532958 79.08058068997929 59.69428401941471 C 0.0 **** -0.24
16982 H 97.47965727685457 78.59653112528872 59.584628646338246 H 0.0 **** 0.06
16983 H 99.20217649689408 78.33475184200441 59.95043782175645 H 0.0 **** 0.06
16984 H 98.39507567497989 79.82902431686387 60.48422451194031 H 0.0 **** 0.06
16985 H 98.72271635316864 79.56366577029843 58.75518734674037 H 0.0 **** 0.06
16986 C 93.41360858932798 49.53590802628946 110.42370209676562 C 0.0 **** -0.24
16987 H 92.57400112595953 50.11392869625752 110.80898761693055 H 0.0 **** 0.06
16988 H 94.17119425595016 49.43291468198936 111.2012224749929 H 0.0 **** 0.06
16989 H 93.84401868163164 50.048277726263336 109.56293962640075 H 0.0 **** 0.06
16990 H 93.06547721492059 48.5476028974889 110.12132791650771 H 0.0 **** 0.06
16991 C 95.7366615097496 76.09942765942036 74.49122474098135 C 0.0 **** -0.24
16992 H 94.747181583574 76.21469450186504 74.9332050144921 H 0.0 **** 0.06
16993 H 96.44704326585209 75.80450201999841 75.26484564053956 H 0.0 **** 0.06
16994 H 96.05085865970679 77.04547131523626 74.05032667251285 H 0.0 **** 0.06
16995 H 95.70173850118988 75.33215954385378 73.71761205160925 H 0.0 **** 0.06
16996 C 54.40703298030593 24.500717979463758 53.98266298428893 C 0.0 **** -0.24
16997 H 53.796814731916584 25.03641585764626 54.70989061868851 H 0.0 **** 0.06
16998 H 55.29704689560788 24.10798945064505 54.47515677439959 H 0.0 **** 0.06
16999 H 54.703837656311066 25.181948333033063 53.18480473850096 H 0.0 **** 0.06
17000 H 53.831224326899246 23.67733237857442 53.561642764228125 H 0.0 **** 0.06
17001 C 86.57855715339971 20.963930158368825 4.77658266888281 C 0.0 **** -0.24
17002 H 86.80060121510468 20.842103992490934 3.716811785074995 H 0.0 **** 0.06
17003 H 85.62378658196118 20.488586383531242 5.004156998462435 H 0.0 **** 0.06
17004 H 86.52149014687802 22.025741534791834 5.0156255456992085 H 0.0 **** 0.06
17005 H 87.36641225601909 20.499672586555533 5.368689691911584 H 0.0 **** 0.06
17006 C 103.23932246568977 95.96373701597236 95.12057766824503 C 0.0 **** -0.24
17007 H 102.5048772515584 95.16022042385794 95.0510005931423 H 0.0 **** 0.06
17008 H 102.73859662285521 96.92446131390705 94.99877441109868 H 0.0 **** 0.06
17009 H 103.98662753980955 95.84049310674601 94.33805514501904 H 0.0 **** 0.06
17010 H 103.72468948213753 95.92777819778249 96.09642367884533 H 0.0 **** 0.06
17011 C 10.354312808784499 43.11438965868706 42.57983427636941 C 0.0 **** -0.24
17012 H 10.850595668793389 43.35049592852255 43.52073526097799 H 0.0 **** 0.06
17013 H 10.822057590509175 43.676073228935905 41.77060748605928 H 0.0 **** 0.06
17014 H 9.299844089956963 43.383497842383605 42.647251664106705 H 0.0 **** 0.06
17015 H 10.44414142234939 42.04640844249329 42.38007061074777 H 0.0 **** 0.06
17016 C 77.98786840913385 31.215650099087156 82.54387563992884 C 0.0 **** -0.24
17017 H 78.15610703655517 31.154425908958416 83.6194261780609 H 0.0 **** 0.06
17018 H 77.35662941034707 32.076708529798026 82.32418435184675 H 0.0 **** 0.06
17019 H 77.49525326312892 30.30588905266876 82.20179134029152 H 0.0 **** 0.06
17020 H 78.94404152913461 31.32567156394795 82.0337994616159 H 0.0 **** 0.06
17021 C 18.037406629484337 10.158370816550104 103.28787792007338 C 0.0 **** -0.24
17022 H 17.63319028276001 10.38405575984359 102.30115202246353 H 0.0 **** 0.06
17023 H 18.265540774402723 11.089290381066704 103.80821742921431 H 0.0 **** 0.06
17024 H 18.947467649962107 9.568903166008567 103.18070829287235 H 0.0 **** 0.06
17025 H 17.30292923637515 9.59223782681633 103.86057150474457 H 0.0 **** 0.06
17026 C 85.70598261508646 16.720832162857107 57.21976760030765 C 0.0 **** -0.24
17027 H 85.14154094757663 17.305679914526763 57.94613890634436 H 0.0 **** 0.06
17028 H 86.02291335170989 15.783324678889187 57.678213083888565 H 0.0 **** 0.06
17029 H 86.58280135654846 17.284726073361412 56.90255305585309 H 0.0 **** 0.06
17030 H 85.07688131394818 16.509146299033887 56.35587401123847 H 0.0 **** 0.06
17031 C 24.88683262421543 50.89774131599086 19.598469028067996 C 0.0 **** -0.24
17032 H 25.41866556103139 49.954063292441106 19.715831778005963 H 0.0 **** 0.06
17033 H 24.24918014562141 50.847174678188026 18.714956164755165 H 0.0 **** 0.06
17034 H 25.60650915798996 51.70760556302969 19.48210279688766 H 0.0 **** 0.06
17035 H 24.272154880282272 51.081300207880986 20.48017816701696 H 0.0 **** 0.06
17036 C 60.418110536953066 5.218773966778819 47.22287940035068 C 0.0 **** -0.24
17037 H 60.95255129554488 6.047910909892785 47.68579139880234 H 0.0 **** 0.06
17038 H 60.78238260351759 4.277336578104366 47.63516341478237 H 0.0 **** 0.06
17039 H 60.5868264582391 5.234173489395223 46.14580540759977 H 0.0 **** 0.06
17040 H 59.35159998263836 5.315360049873949 47.424997912853314 H 0.0 **** 0.06
17041 C 1.1825597103173884 49.04706689740942 98.53691313131876 C 0.0 **** -0.24
17042 H 1.1415205835418138 50.12900195040402 98.40481855504045 H 0.0 **** 0.06
17043 H 1.9169037620738152 48.625221691144134 97.84968240643362 H 0.0 **** 0.06
17044 H 0.2018353919116933 48.618671696720355 98.32931029722815 H 0.0 **** 0.06
17045 H 1.470435125618529 48.81735508019568 99.56291351757481 H 0.0 **** 0.06
17046 C 68.17577535424552 29.55461140213859 22.538949816641523 C 0.0 **** -0.24
17047 H 67.68876916364364 30.232904637355375 23.238506625018278 H 0.0 **** 0.06
17048 H 69.24651882457611 29.525777714152753 22.74658826690864 H 0.0 **** 0.06
17049 H 68.01259689872194 29.90516936364787 21.519536506641778 H 0.0 **** 0.06
17050 H 67.75709681522525 28.554337432640494 22.649985057862832 H 0.0 **** 0.06
17051 C 14.542198472096914 97.4351431203911 95.61744192377424 C 0.0 **** -0.24
17052 H 14.359619826303856 97.61156510229978 96.67762063306657 H 0.0 **** 0.06
17053 H 15.544425391280697 97.77670167940227 95.35979978217065 H 0.0 **** 0.06
17054 H 13.807375115786215 97.98415478734393 95.02713651343939 H 0.0 **** 0.06
17055 H 14.454697878634818 96.36962456267747 95.40602910603553 H 0.0 **** 0.06
17056 C 39.79133754279039 93.36512692179289 60.22249088694008 C 0.0 **** -0.24
17057 H 39.47031044973281 94.2238763409618 60.81126719548979 H 0.0 **** 0.06
17058 H 39.91221547286628 92.50127454755247 60.87582780834447 H 0.0 **** 0.06
17059 H 40.74167212092243 93.59154503741121 59.738225849203786 H 0.0 **** 0.06
17060 H 39.040343856241805 93.14457346306999 59.46331353022384 H 0.0 **** 0.06
17061 C 42.17663235902185 87.88567274005197 9.187381557448902 C 0.0 **** -0.24
17062 H 42.05382614137946 88.9068314324818 9.551770436776422 H 0.0 **** 0.06
17063 H 42.43043518607735 87.23177961163469 10.021451357173845 H 0.0 **** 0.06
17064 H 42.97607185533906 87.8587453908412 8.446521248186087 H 0.0 **** 0.06
17065 H 41.24568867689672 87.54975331899874 8.73127244216235 H 0.0 **** 0.06
17066 C 13.393941691229571 17.617303936115103 66.59396084555536 C 0.0 **** -0.24
17067 H 13.113898218222971 17.847862192107737 65.56574873820688 H 0.0 **** 0.06
17068 H 14.25569860827241 16.948631417312836 66.59264695420484 H 0.0 **** 0.06
17069 H 12.55806015869149 17.131737974242235 67.09739336713807 H 0.0 **** 0.06
17070 H 13.647871461149236 18.539055478869106 67.1164177917797 H 0.0 **** 0.06
17071 C 1.878585672604835 36.186152795357486 50.06234994311819 C 0.0 **** -0.24
17072 H 2.926560122788901 36.196538726179796 50.3642941754201 H 0.0 **** 0.06
17073 H 1.6583253930193589 37.083477539992145 49.48361745184329 H 0.0 **** 0.06
17074 H 1.2461259490829608 36.162714084236654 50.949658156696984 H 0.0 **** 0.06
17075 H 1.684431544319878 35.30269358868753 49.45386199852794 H 0.0 **** 0.06
17076 C 27.358542065512097 33.62304053548689 47.69556511249275 C 0.0 **** -0.24
17077 H 26.57634820153237 34.02233341974181 47.05014858802145 H 0.0 **** 0.06
17078 H 28.033143594693087 33.00253655539183 47.10609067484011 H 0.0 **** 0.06
17079 H 26.905746908685842 33.021363768385186 48.48362486056944 H 0.0 **** 0.06
17080 H 27.916543999260284 34.44688437074262 48.141214935221356 H 0.0 **** 0.06
17081 C 59.068643067372875 115.29961574608292 98.07729748788057 C 0.0 **** -0.24
17082 H 59.79752149817733 114.49348726482651 97.99553171680866 H 0.0 **** 0.06
17083 H 59.24321084346087 116.02911475630248 97.28676234600242 H 0.0 **** 0.06
17084 H 59.17108011564767 115.78380964028696 99.04805978288066 H 0.0 **** 0.06
17085 H 58.06305534776132 114.88983767927779 97.97872330117659 H 0.0 **** 0.06
17086 C 65.06315418662564 115.21104822597333 105.88744880627551 C 0.0 **** -0.24
17087 H 64.77494014785205 114.53130300663682 105.08476784004534 H 0.0 **** 0.06
17088 H 66.11243541454128 115.48285505167841 105.7740844083768 H 0.0 **** 0.06
17089 H 64.9168961518389 114.71788463849147 106.84855745278497 H 0.0 **** 0.06
17090 H 64.44774730955324 116.10863986774908 105.84181896895787 H 0.0 **** 0.06
17091 C 9.436513769796843 69.33820889390478 41.8522777352991 C 0.0 **** -0.24
17092 H 10.153074291481786 70.15680155190114 41.92137654833225 H 0.0 **** 0.06
17093 H 9.807207463517756 68.59025025056025 41.150912890668636 H 0.0 **** 0.06
17094 H 8.47906065344469 69.72198891774741 41.50201226872755 H 0.0 **** 0.06
17095 H 9.308069458026257 68.88343967292542 42.8349911328765 H 0.0 **** 0.06
17096 C 78.12580120371334 85.91073186800439 21.49483506297556 C 0.0 **** -0.24
17097 H 77.11303879571237 86.05503638277776 21.871272405132295 H 0.0 **** 0.06
17098 H 78.7407454892655 86.76763827985042 21.769928651079695 H 0.0 **** 0.06
17099 H 78.1005367342798 85.81544265997253 20.409603202842952 H 0.0 **** 0.06
17100 H 78.549220249199 85.00520719552868 21.92938993091291 H 0.0 **** 0.06
17101 C 56.97611769492329 46.84291549838106 25.839591311340733 C 0.0 **** -0.24
17102 H 58.03294964703275 46.753501503801516 26.091791507494428 H 0.0 **** 0.06
17103 H 56.56124513326665 45.851615328106334 25.658897518496374 H 0.0 **** 0.06
17104 H 56.86731658853927 47.451634077042854 24.94200256257772 H 0.0 **** 0.06
17105 H 56.444106071836075 47.3155259298733 26.665119357619993 H 0.0 **** 0.06
17106 C 34.57841137534754 93.2660721946162 43.23854857181368 C 0.0 **** -0.24
17107 H 33.81128296719672 93.08331907203889 42.48578308334271 H 0.0 **** 0.06
17108 H 35.564217006981124 93.17544988664072 42.78251085190047 H 0.0 **** 0.06
17109 H 34.480704047576495 92.53548468059441 44.04134536968644 H 0.0 **** 0.06
17110 H 34.45546818417293 94.27027030019539 43.64558020846053 H 0.0 **** 0.06
17111 C 110.26559138573614 59.701937410447684 38.569941557732534 C 0.0 **** -0.24
17112 H 110.36500714883584 58.839360684473704 37.91075154571348 H 0.0 **** 0.06
17113 H 110.89018195683259 59.55767394766103 39.451902591161286 H 0.0 **** 0.06
17114 H 109.22503053543167 59.808717217100266 38.873750133852724 H 0.0 **** 0.06
17115 H 110.584276559199 60.6013230650146 38.04136057224895 H 0.0 **** 0.06
17116 C 20.977632502914847 33.84749110549268 95.89816436784398 C 0.0 **** -0.24
17117 H 20.084850961107982 33.240297996108836 96.04664393816773 H 0.0 **** 0.06
17118 H 21.862439829893532 33.253981573764804 96.13073704030435 H 0.0 **** 0.06
17119 H 20.93894505312223 34.716912122853785 96.55542991767875 H 0.0 **** 0.06
17120 H 21.023941313160478 34.17836085331845 94.86115270145825 H 0.0 **** 0.06
17121 C 36.693922174567604 39.009091501817984 96.90627898269122 C 0.0 **** -0.24
17122 H 36.16388979355719 38.62411607836354 97.77841271478485 H 0.0 **** 0.06
17123 H 37.19673237842136 39.93961883699406 97.16954752664384 H 0.0 **** 0.06
17124 H 35.9813912456072 39.19490501568654 96.10199257575016 H 0.0 **** 0.06
17125 H 37.43111892834173 38.277423712724534 96.57670394153502 H 0.0 **** 0.06
17126 C 50.69060135348832 60.687787705618575 12.904046811602683 C 0.0 **** -0.24
17127 H 51.12443075382126 61.678072850848196 12.762993720372862 H 0.0 **** 0.06
17128 H 51.361714488448854 60.08001182589345 13.511340992364723 H 0.0 **** 0.06
17129 H 50.5475113265133 60.2126064780814 11.933745013351029 H 0.0 **** 0.06
17130 H 49.72816144428873 60.78105377205492 13.407557923174267 H 0.0 **** 0.06
17131 C 113.33897419361918 45.0316209127584 0.4411076714961695 C 0.0 **** -0.24
17132 H 114.27739444354626 44.92445301498816 -0.1037547707346107 H 0.0 **** 0.06
17133 H 113.02020799402999 44.05498180814254 0.807317728046911 H 0.0 **** 0.06
17134 H 112.57677795829848 45.43673589344553 -0.22367142136181428 H 0.0 **** 0.06
17135 H 113.4829641587559 45.70645226520878 1.2845506494558094 H 0.0 **** 0.06
17136 C 58.86112064781413 82.88439087971318 94.62691238408328 C 0.0 **** -0.24
17137 H 58.56359008740584 83.93332433226365 94.60367875722267 H 0.0 **** 0.06
17138 H 59.86703855618937 82.78418678140855 94.2194730094991 H 0.0 **** 0.06
17139 H 58.165885878777146 82.29604712555798 94.02867099749466 H 0.0 **** 0.06
17140 H 58.84868298046301 82.52634765783783 95.65587684110884 H 0.0 **** 0.06
17141 C 111.66206329726997 11.790871056231282 97.09891225029509 C 0.0 **** -0.24
17142 H 110.7666737479843 12.396300161095624 96.9605841320959 H 0.0 **** 0.06
17143 H 111.43056485710562 10.942100327751177 97.74283251490314 H 0.0 **** 0.06
17144 H 112.44273575176688 12.395692698725568 97.56090238795775 H 0.0 **** 0.06
17145 H 112.00938794898852 11.42857546162196 96.13100622257139 H 0.0 **** 0.06
17146 C 59.903368540650405 85.5066124496071 8.656584601916592 C 0.0 **** -0.24
17147 H 60.872507458536944 85.05608079438062 8.873516863027735 H 0.0 **** 0.06
17148 H 59.537185675268745 86.02336650091328 9.54391990248848 H 0.0 **** 0.06
17149 H 59.19644621560121 84.7270256082507 8.371813176110212 H 0.0 **** 0.06
17150 H 60.00954922458382 86.21815706130734 7.837974524566382 H 0.0 **** 0.06
17151 C 18.610549354381106 115.55829042589185 43.6784955741189 C 0.0 **** -0.24
17152 H 19.34048292870048 115.06179355306007 44.3169188803233 H 0.0 **** 0.06
17153 H 17.71814261702619 115.79197358432882 44.25976831102622 H 0.0 **** 0.06
17154 H 18.344195007370672 114.90005894565569 42.85110191105565 H 0.0 **** 0.06
17155 H 19.039284608550986 116.48005027233303 43.28497628184414 H 0.0 **** 0.06
17156 C 83.46008355882526 114.62962401128347 85.66929180047552 C 0.0 **** -0.24
17157 H 83.26652439917564 115.43239338463403 84.95796295449964 H 0.0 **** 0.06
17158 H 83.3991826032563 113.66852891048933 85.15922925032771 H 0.0 **** 0.06
17159 H 82.71854988576476 114.66606755653632 86.4681036068354 H 0.0 **** 0.06
17160 H 84.45661922312043 114.75411565074486 86.09357364514267 H 0.0 **** 0.06
17161 C 49.51556431234974 48.95788405333923 24.088495489318404 C 0.0 **** -0.24
17162 H 49.30634556992453 48.92222490712379 23.019906966867012 H 0.0 **** 0.06
17163 H 50.004845329394385 48.03366625027945 24.395035961524144 H 0.0 **** 0.06
17164 H 48.58015852272868 49.073476270735966 24.637297897563315 H 0.0 **** 0.06
17165 H 50.168979622894994 49.804138722109485 24.302925144821927 H 0.0 **** 0.06
17166 C 74.34266170727311 19.451011369018563 80.6579190328211 C 0.0 **** -0.24
17167 H 74.75886909014706 19.45129317189588 79.65115798128089 H 0.0 **** 0.06
17168 H 74.88285263583978 18.73121792503031 81.27416070742824 H 0.0 **** 0.06
17169 H 73.288838063505 19.173549756176847 80.61464768860691 H 0.0 **** 0.06
17170 H 74.43932167477324 20.446012682847538 81.09098452770013 H 0.0 **** 0.06
17171 C 52.587357349981055 91.34387235228866 93.83174736377168 C 0.0 **** -0.24
17172 H 52.59518070187377 90.41687358619811 93.25755428399873 H 0.0 **** 0.06
17173 H 53.33958649538203 91.28902011996445 94.6193838050167 H 0.0 **** 0.06
17174 H 51.60364970203376 91.48629335452517 94.2780981495182 H 0.0 **** 0.06
17175 H 52.811794580563436 92.18137259750716 93.17113792732286 H 0.0 **** 0.06
17176 C 26.025811885789608 113.01031331790817 94.45294040751287 C 0.0 **** -0.24
17177 H 25.534014671675777 112.37360956904973 95.18720758910223 H 0.0 **** 0.06
17178 H 25.53340122368138 112.89808057921486 93.48630491112593 H 0.0 **** 0.06
17179 H 27.07332154853333 112.72106520101711 94.36307584588491 H 0.0 **** 0.06
17180 H 25.962472050752126 114.05022469533284 94.77530358346706 H 0.0 **** 0.06
17181 C 86.1812244725249 90.22733241956598 99.18065638114666 C 0.0 **** -0.24
17182 H 86.26757666683359 89.27005881781855 99.69687942393267 H 0.0 **** 0.06
17183 H 87.17613259401307 90.63898952097998 99.01067455804241 H 0.0 **** 0.06
17184 H 85.60215143655664 90.91816397026156 99.79336164049158 H 0.0 **** 0.06
17185 H 85.6795641478943 90.07983934868315 98.22463115815088 H 0.0 **** 0.06
17186 C 27.895359891944366 84.68259643775785 32.68780376022559 C 0.0 **** -0.24
17187 H 28.395511038247434 83.71563299458771 32.62263352719336 H 0.0 **** 0.06
17188 H 27.050906555353606 84.70153775501156 31.998127459022328 H 0.0 **** 0.06
17189 H 28.598033147252153 85.47300417291822 32.424983608331445 H 0.0 **** 0.06
17190 H 27.53693487613262 84.83781539288056 33.7059796797123 H 0.0 **** 0.06
17191 C 35.87313219034661 98.44064894932727 96.66565011399149 C 0.0 **** -0.24
17192 H 36.24933466340383 97.5341726893536 97.14060072560889 H 0.0 **** 0.06
17193 H 34.95253104958397 98.75233318631008 97.15813359441205 H 0.0 **** 0.06
17194 H 35.67352156955167 98.24105304201267 95.61253774411983 H 0.0 **** 0.06
17195 H 36.61870269888442 99.23122925876918 96.7510723019769 H 0.0 **** 0.06
17196 C 37.42599513721805 11.904430691436204 75.62706966479652 C 0.0 **** -0.24
17197 H 38.482334160282875 12.171531075092474 75.65744742615794 H 0.0 **** 0.06
17198 H 37.28290616210384 11.069302881305248 74.94222546857796 H 0.0 **** 0.06
17199 H 36.845762807603705 12.760800148858124 75.2830022756437 H 0.0 **** 0.06
17200 H 37.09527567992046 11.618910870032067 76.6247351999366 H 0.0 **** 0.06
17201 C 109.44726185304953 99.73848763044185 61.92467943323811 C 0.0 **** -0.24
17202 H 109.81968374740015 99.82939484013144 60.904903821720495 H 0.0 **** 0.06
17203 H 109.38042616953464 100.72919867156716 62.37637212358709 H 0.0 **** 0.06
17204 H 110.12977984800419 99.11928185297421 62.506599473322524 H 0.0 **** 0.06
17205 H 108.45917989090644 99.27735481537115 61.91144405649314 H 0.0 **** 0.06
17206 C 65.27701721652119 103.57936005848589 6.936830296822425 C 0.0 **** -0.24
17207 H 64.27697316039394 103.5732555840842 7.370585048689943 H 0.0 **** 0.06
17208 H 65.99806313261149 103.2483537346154 7.6836938102355266 H 0.0 **** 0.06
17209 H 65.52661369165355 104.58954385117906 6.612012088269596 H 0.0 **** 0.06
17210 H 65.30546528860708 102.9052155568371 6.080059310857743 H 0.0 **** 0.06
17211 C 30.551079408883595 9.93924334831624 75.71747531821211 C 0.0 **** -0.24
17212 H 30.833614494708 10.954299467783784 75.9971332684845 H 0.0 **** 0.06
17213 H 30.105043194807763 9.948107511287532 74.7222659160496 H 0.0 **** 0.06
17214 H 29.829804306934477 9.551301824314592 76.43558607547448 H 0.0 **** 0.06
17215 H 31.43656554239203 9.303927895816571 75.71266736798157 H 0.0 **** 0.06
17216 C 56.62901453150769 92.38479568081415 93.13825298241386 C 0.0 **** -0.24
17217 H 56.93516946684471 93.14692457840017 92.4215966792526 H 0.0 **** 0.06
17218 H 57.36130936741428 92.33016682328903 93.94433521573679 H 0.0 **** 0.06
17219 H 56.56674048823237 91.41831103219654 92.63767437013615 H 0.0 **** 0.06
17220 H 55.65380555369459 92.64394992585586 93.54959717030721 H 0.0 **** 0.06
17221 C 100.85030044858405 25.99031640303309 28.80214942426562 C 0.0 **** -0.24
17222 H 101.577327057049 26.60292767128408 29.335359798100683 H 0.0 **** 0.06
17223 H 101.12195301044264 25.940242238982876 27.746985879057434 H 0.0 **** 0.06
17224 H 99.85928460149435 26.433697638130695 28.901418004176463 H 0.0 **** 0.06
17225 H 100.84223660500949 24.98491992837353 29.223582075441698 H 0.0 **** 0.06
17226 C 43.20596758285555 44.247424811331314 35.37510304167321 C 0.0 **** -0.24
17227 H 44.13636985813709 44.69537758998035 35.72360045764006 H 0.0 **** 0.06
17228 H 42.82531693140295 43.56425703002327 36.134384556885124 H 0.0 **** 0.06
17229 H 43.390365843860636 43.69862447578089 34.45193567412669 H 0.0 **** 0.06
17230 H 42.471817698021596 45.031440149540856 35.190491478040784 H 0.0 **** 0.06
17231 C 64.64358236309913 58.926596712070534 68.46875609525486 C 0.0 **** -0.24
17232 H 63.61150588251566 58.696367628131085 68.73064573937339 H 0.0 **** 0.06
17233 H 65.03397038333166 58.150683543476035 67.81043285603599 H 0.0 **** 0.06
17234 H 65.24694142832269 58.97050891313765 69.37629903999513 H 0.0 **** 0.06
17235 H 64.68396636512936 59.88934320681602 67.95977098396577 H 0.0 **** 0.06
17236 C 95.66639509718586 94.01874354454604 112.55722146372187 C 0.0 **** -0.24
17237 H 96.45235679124612 93.4295668762262 112.08399037484367 H 0.0 **** 0.06
17238 H 95.22421684455122 93.44596228550142 113.37238069681209 H 0.0 **** 0.06
17239 H 94.89828384850031 94.25687796395252 111.8204000825837 H 0.0 **** 0.06
17240 H 96.09187398568919 94.94223091871682 112.94936469377431 H 0.0 **** 0.06
17241 C 64.0271176388182 61.335136439513064 27.4214824622955 C 0.0 **** -0.24
17242 H 64.74271414791701 60.97016781336883 28.157925987171097 H 0.0 **** 0.06
17243 H 63.066765694567266 61.51479159393455 27.90497158812161 H 0.0 **** 0.06
17244 H 63.9043418325995 60.59005011597803 26.634424576148717 H 0.0 **** 0.06
17245 H 64.39505033902822 62.263967768333586 26.98676946897109 H 0.0 **** 0.06
17246 C 9.518582858316975 85.43569477488006 5.531468769342041 C 0.0 **** -0.24
17247 H 9.42643468314225 84.7502857566639 4.689357905315944 H 0.0 **** 0.06
17248 H 10.005562958556979 84.92458457347925 6.3631498442577765 H 0.0 **** 0.06
17249 H 8.52804850722001 85.76921893809512 5.839668128682007 H 0.0 **** 0.06
17250 H 10.11680941922404 86.29722737987112 5.234399549569048 H 0.0 **** 0.06
17251 C 47.043625074158456 30.00254571471288 70.40064359341079 C 0.0 **** -0.24
17252 H 47.17525532653053 31.000273292758664 69.98089871819559 H 0.0 **** 0.06
17253 H 47.40972924664209 29.259186392010974 69.69308005664993 H 0.0 **** 0.06
17254 H 45.986227817194276 29.82857974759918 70.59708282413118 H 0.0 **** 0.06
17255 H 47.60366168160061 29.924853410572723 71.33309923199403 H 0.0 **** 0.06
17256 C 63.78093353212745 14.78479053509011 19.342073048315015 C 0.0 **** -0.24
17257 H 63.247828776752115 13.91220721203706 19.719668364351918 H 0.0 **** 0.06
17258 H 64.83675634340008 14.541238176381768 19.221499323235236 H 0.0 **** 0.06
17259 H 63.67604012492707 15.608491512155325 20.04881393214879 H 0.0 **** 0.06
17260 H 63.36372688114909 15.077781493500822 18.37886619703636 H 0.0 **** 0.06
17261 C 47.37138898226501 39.39097502277397 99.38330957704584 C 0.0 **** -0.24
17262 H 47.51400501724707 38.562825666359174 98.68949920498362 H 0.0 **** 0.06
17263 H 48.34287387290136 39.79367543328695 99.67356146737315 H 0.0 **** 0.06
17264 H 46.844862516559864 39.03702678488344 100.26853043509279 H 0.0 **** 0.06
17265 H 46.78498315543341 40.1721013220706 98.89949198193939 H 0.0 **** 0.06
17266 C 83.44509077774153 30.454342667546797 109.14951558815065 C 0.0 **** -0.24
17267 H 83.65203877775235 30.362907353272675 108.08377941114205 H 0.0 **** 0.06
17268 H 83.27323277919514 29.46432051359688 109.57185255554631 H 0.0 **** 0.06
17269 H 82.55701994388254 31.07063351426168 109.29503682037306 H 0.0 **** 0.06
17270 H 84.29626944695957 30.920032735086245 109.64617763114788 H 0.0 **** 0.06
17271 C 107.95283667121407 74.62795442319356 83.83582509778773 C 0.0 **** -0.24
17272 H 107.85251995016336 75.59507470939218 83.34314623434238 H 0.0 **** 0.06
17273 H 107.03775168452171 74.40318025302881 84.38479564364411 H 0.0 **** 0.06
17274 H 108.79443941679313 74.65887098986352 84.52814768500491 H 0.0 **** 0.06
17275 H 108.12663563337793 73.85469174048966 83.08721082815947 H 0.0 **** 0.06
17276 C 28.031905763949126 67.52156899239878 31.890622118276404 C 0.0 **** -0.24
17277 H 28.176518984694006 68.23735430736755 31.081740840210443 H 0.0 **** 0.06
17278 H 28.958029094103374 67.42053376289158 32.457070749839936 H 0.0 **** 0.06
17279 H 27.75299506662342 66.55324910553162 31.474162015039354 H 0.0 **** 0.06
17280 H 27.239037002896488 67.87483669453695 32.550421065426285 H 0.0 **** 0.06
17281 C 109.5064587991289 105.2587962521804 106.32827347667249 C 0.0 **** -0.24
17282 H 109.17141362489889 105.86738560685784 107.16814089339319 H 0.0 **** 0.06
17283 H 108.64223764441726 104.9160346011507 105.76009502881884 H 0.0 **** 0.06
17284 H 110.06140610165147 104.3973674056608 106.70200664206871 H 0.0 **** 0.06
17285 H 110.15293972673743 105.85474969557696 105.68394788641577 H 0.0 **** 0.06
17286 C 71.97963371561002 39.04956966466142 46.42022775576737 C 0.0 **** -0.24
17287 H 71.45218438333723 38.328177918967185 45.79656384409253 H 0.0 **** 0.06
17288 H 71.28686544062509 39.48057213933768 47.14307873897815 H 0.0 **** 0.06
17289 H 72.38944589482878 39.84032275690575 45.79258771092316 H 0.0 **** 0.06
17290 H 72.79019435527022 38.547480720407464 46.948675208386305 H 0.0 **** 0.06
17291 C 10.18807461507376 3.60222174280279 100.6294181254937 C 0.0 **** -0.24
17292 H 11.268231991466507 3.5092801119024255 100.73799250727296 H 0.0 **** 0.06
17293 H 9.963097662786083 4.253373031930645 99.78401704156259 H 0.0 **** 0.06
17294 H 9.76698892333576 4.029427059884778 101.53962800382075 H 0.0 **** 0.06
17295 H 9.753837573186331 2.6181925191912025 100.45627898611367 H 0.0 **** 0.06
17296 C 36.94363059620486 89.25871345103833 98.90002988495598 C 0.0 **** -0.24
17297 H 37.56390438455099 88.53644828377487 98.36999501193108 H 0.0 **** 0.06
17298 H 35.95856441410248 88.82851751200324 99.08106201026294 H 0.0 **** 0.06
17299 H 36.841931829285365 90.16180271617601 98.29769880574045 H 0.0 **** 0.06
17300 H 37.41097980706995 89.5089835290324 99.8532230679003 H 0.0 **** 0.06
17301 C 18.408965139317814 88.90053707329028 82.03180426443618 C 0.0 **** -0.24
17302 H 17.93119799875859 89.01127322811259 81.0584689643739 H 0.0 **** 0.06
17303 H 19.040486586596813 89.76673621688074 82.22682530289029 H 0.0 **** 0.06
17304 H 19.019623844602677 87.99669195581444 82.03562565544547 H 0.0 **** 0.06
17305 H 17.644739461044722 88.82576267561363 82.80483816130106 H 0.0 **** 0.06
17306 C 48.17238183268694 72.6934389367878 75.08598750846448 C 0.0 **** -0.24
17307 H 47.56169543443474 71.86784677692907 74.72042045978532 H 0.0 **** 0.06
17308 H 47.52451273880203 73.48539823264844 75.46300172601312 H 0.0 **** 0.06
17309 H 48.784695960525966 73.08073619276831 74.27147488545154 H 0.0 **** 0.06
17310 H 48.81929699531156 72.33864192948937 75.88956608255921 H 0.0 **** 0.06
17311 C 81.27292482584085 109.31202178581397 56.42090411998055 C 0.0 **** -0.24
17312 H 81.55342989953716 108.2759395524561 56.22952464942264 H 0.0 **** 0.06
17313 H 82.14216758556385 109.95511547110686 56.28419978267004 H 0.0 **** 0.06
17314 H 80.90881243145674 109.40614034773539 57.44413060186349 H 0.0 **** 0.06
17315 H 80.48761919527249 109.60972056162318 55.726994192215386 H 0.0 **** 0.06
17316 C 106.00525013276393 34.84754159320286 8.867638437921585 C 0.0 **** -0.24
17317 H 106.61735823529817 35.69903366319849 8.571011640525796 H 0.0 **** 0.06
17318 H 104.95269412816945 35.085572136285094 8.714930030594672 H 0.0 **** 0.06
17319 H 106.17886074683773 34.624483747135216 9.920783327143369 H 0.0 **** 0.06
17320 H 106.27250610956843 33.97943642616835 8.264194756181638 H 0.0 **** 0.06
17321 C 45.35899504370286 49.58204741116916 24.390707923560342 C 0.0 **** -0.24
17322 H 45.16750187762426 50.536580479824295 24.88024495504021 H 0.0 **** 0.06
17323 H 45.27847648996777 49.70542105158404 23.310216682535554 H 0.0 **** 0.06
17324 H 44.62874845002165 48.847372069165715 24.729034057014303 H 0.0 **** 0.06
17325 H 46.363019837891784 49.2401861259184 24.643283979601108 H 0.0 **** 0.06
17326 C 54.40315943921473 26.677477550247694 48.20493830378371 C 0.0 **** -0.24
17327 H 53.644104811284194 27.415789959464398 47.943525798707576 H 0.0 **** 0.06
17328 H 54.727872402648586 26.15683433488229 47.304297608096235 H 0.0 **** 0.06
17329 H 53.98389006200699 25.95949011805466 48.90924984546865 H 0.0 **** 0.06
17330 H 55.25537438015971 27.181217534355767 48.66209399814677 H 0.0 **** 0.06
17331 C 58.08475072103404 14.625200433163798 15.687736217410144 C 0.0 **** -0.24
17332 H 57.38145185999721 15.084616080662954 14.993531275648472 H 0.0 **** 0.06
17333 H 58.01732714817507 15.120938891481842 16.656252097289784 H 0.0 **** 0.06
17334 H 59.097282217975135 14.725574412948035 15.297329296569835 H 0.0 **** 0.06
17335 H 57.84322488577986 13.568453867231057 15.80317250215256 H 0.0 **** 0.06
17336 C 8.684942047592557 81.53283867169262 6.841272263393535 C 0.0 **** -0.24
17337 H 7.985676284970339 81.95993002783979 7.559349459100261 H 0.0 **** 0.06
17338 H 8.17332095275205 81.36129556488379 5.893135939798086 H 0.0 **** 0.06
17339 H 9.066226741047132 80.58595168787053 7.224708864895931 H 0.0 **** 0.06
17340 H 9.514642497953403 82.22305532204109 6.68703958178682 H 0.0 **** 0.06
17341 C 103.15140097398474 101.67758574670063 28.791884973357526 C 0.0 **** -0.24
17342 H 102.38058824702173 101.33990065386743 29.484166010431238 H 0.0 **** 0.06
17343 H 104.06446695762864 101.89659447751413 29.345409350523312 H 0.0 **** 0.06
17344 H 102.81194276176667 102.5784509854754 28.28101661524559 H 0.0 **** 0.06
17345 H 103.34995232680107 100.89605315951047 28.0586082734215 H 0.0 **** 0.06
17346 C 98.59366936951102 57.45237043099348 48.13080941457625 C 0.0 **** -0.24
17347 H 98.56149129482777 58.28174288062456 48.83810251183101 H 0.0 **** 0.06
17348 H 98.12282075611604 56.576251650074425 48.57662778046543 H 0.0 **** 0.06
17349 H 99.63143919503875 57.22300903374543 47.88717908030614 H 0.0 **** 0.06
17350 H 98.05949680333323 57.729768730288384 47.22142309743218 H 0.0 **** 0.06
17351 C 5.248161129425597 87.1784831159373 93.30845169589365 C 0.0 **** -0.24
17352 H 5.749578525061594 88.08838557187198 93.63898414224252 H 0.0 **** 0.06
17353 H 5.249011268810847 86.44830909510137 94.11795262254685 H 0.0 **** 0.06
17354 H 5.774543186508907 86.76650374338789 92.44751181636768 H 0.0 **** 0.06
17355 H 4.2201778597073485 87.41049734570504 93.02865106677804 H 0.0 **** 0.06
17356 C 48.39141311852732 84.00966151858592 74.96583429627377 C 0.0 **** -0.24
17357 H 48.08592108673116 83.0318414134527 74.59304074294548 H 0.0 **** 0.06
17358 H 49.15739729609804 84.42406751518482 74.30976302819056 H 0.0 **** 0.06
17359 H 48.79373169762492 83.90369754337588 75.97296284360917 H 0.0 **** 0.06
17360 H 47.5293361656335 84.67595645541653 74.98659260855273 H 0.0 **** 0.06
17361 C 9.391512677427272 25.206513075728594 7.345121366250197 C 0.0 **** -0.24
17362 H 10.340326587301092 24.754483096571846 7.632762760717327 H 0.0 **** 0.06
17363 H 8.5754645079096 24.52842222539323 7.595676273527488 H 0.0 **** 0.06
17364 H 9.390236335698887 25.395088169349833 6.270933563635225 H 0.0 **** 0.06
17365 H 9.260916789002636 26.147263488979092 7.8785497525421135 H 0.0 **** 0.06
17366 C 115.2282425346495 93.15104017354847 49.76077598237344 C 0.0 **** -0.24
17367 H 116.24591986039826 92.97256934665182 50.104418874018755 H 0.0 **** 0.06
17368 H 114.59571330334595 93.40427646783195 50.61152077280944 H 0.0 **** 0.06
17369 H 114.84502923973824 92.25156991634304 49.27779726473039 H 0.0 **** 0.06
17370 H 115.225247933362 93.97535868945033 49.04743624166259 H 0.0 **** 0.06
17371 C 81.50538046929823 76.0597345507287 6.222276802961659 C 0.0 **** -0.24
17372 H 82.13570351324972 75.59163869049695 6.978549700275977 H 0.0 **** 0.06
17373 H 81.6151115108102 77.14301952553308 6.27717982768506 H 0.0 **** 0.06
17374 H 80.4648197990177 75.78981065765282 6.3993843251832345 H 0.0 **** 0.06
17375 H 81.80764276277631 75.71400531279875 5.233155263662525 H 0.0 **** 0.06
17376 C 76.51745075821952 32.1017350193828 102.68975371283145 C 0.0 **** -0.24
17377 H 75.90365295955985 32.88938736058452 103.1263926810289 H 0.0 **** 0.06
17378 H 77.56583411025917 32.397935375665384 102.72156937145652 H 0.0 **** 0.06
17379 H 76.21649492683355 31.93800263821811 101.65570643843603 H 0.0 **** 0.06
17380 H 76.38297066179587 31.180970711589424 103.25815040214269 H 0.0 **** 0.06
17381 C 80.98290135899009 52.36874840609905 15.736955423142774 C 0.0 **** -0.24
17382 H 80.96689113458069 51.37788129546831 16.190032186252978 H 0.0 **** 0.06
17383 H 81.31320630510623 52.28924176584694 14.700840111280115 H 0.0 **** 0.06
17384 H 81.66895598059642 53.010631655131505 16.28918044835916 H 0.0 **** 0.06
17385 H 79.98112248121578 52.797720884760096 15.765839057886865 H 0.0 **** 0.06
17386 C 30.01253095213636 12.129472367913742 7.296759460925443 C 0.0 **** -0.24
17387 H 29.2922278239042 12.046696090839948 6.483953859684334 H 0.0 **** 0.06
17388 H 30.961311397165133 12.49831075199942 6.905935309949967 H 0.0 **** 0.06
17389 H 30.162521236272482 11.149525166452353 7.7506471025624535 H 0.0 **** 0.06
17390 H 29.635128015411397 12.823252871300443 8.047426592887803 H 0.0 **** 0.06
17391 C 8.423501077918331 21.9404660656823 52.76535355595975 C 0.0 **** -0.24
17392 H 9.272827469298676 21.261503066586897 52.680191557610144 H 0.0 **** 0.06
17393 H 7.598586281615809 21.42916029098768 53.26249195966571 H 0.0 **** 0.06
17394 H 8.109687165690161 22.255320832798645 51.76996022851003 H 0.0 **** 0.06
17395 H 8.714084438222102 22.814110653870046 53.348081580671256 H 0.0 **** 0.06
17396 C 60.5704279618958 42.65108539073255 0.59301505378005 C 0.0 **** -0.24
17397 H 60.92715754802964 43.1797266596605 1.4770625491716203 H 0.0 **** 0.06
17398 H 61.299022337328665 41.89249909320882 0.30554563430106896 H 0.0 **** 0.06
17399 H 60.43953999869649 43.35903282828132 -0.22482800507495426 H 0.0 **** 0.06
17400 H 59.6165116310122 42.17328620853471 0.8164454301975184 H 0.0 **** 0.06
17401 C 7.174247983612711 26.103572005118025 107.26214280755667 C 0.0 **** -0.24
17402 H 6.674313007628378 25.472288655275918 107.99770244870278 H 0.0 **** 0.06
17403 H 8.235126989040957 25.857368753140463 107.23521373515906 H 0.0 **** 0.06
17404 H 7.050992012910122 27.151457351510203 107.5399124097998 H 0.0 **** 0.06
17405 H 6.7352921254401075 25.933766020815852 106.27987088077332 H 0.0 **** 0.06
17406 C 114.73655076887471 12.037898115099757 37.70722580588102 C 0.0 **** -0.24
17407 H 113.74443402965022 11.696399144694823 37.41247274704028 H 0.0 **** 0.06
17408 H 115.46701662849108 11.258827221079471 37.49335523731048 H 0.0 **** 0.06
17409 H 114.74134506041861 12.259507214046423 38.77461654796872 H 0.0 **** 0.06
17410 H 114.99063717465478 12.938669464189513 37.14867892422177 H 0.0 **** 0.06
17411 C 42.749574936605164 10.025880754943614 37.4909689598602 C 0.0 **** -0.24
17412 H 43.58297859028829 10.62431116797029 37.12443262617603 H 0.0 **** 0.06
17413 H 42.864644292806325 9.861532328449442 38.56278249082351 H 0.0 **** 0.06
17414 H 42.73701305714889 9.066285863100802 36.975122724455446 H 0.0 **** 0.06
17415 H 41.813944244330756 10.55293112476781 37.302284809807816 H 0.0 **** 0.06
17416 C 114.13397173415905 33.81305096201685 50.88562143300561 C 0.0 **** -0.24
17417 H 114.98010405933394 34.48765095397031 50.75535828746854 H 0.0 **** 0.06
17418 H 113.24954037124522 34.244857073219336 50.41787559998653 H 0.0 **** 0.06
17419 H 113.9469754697602 33.666727672065285 51.95031413562856 H 0.0 **** 0.06
17420 H 114.35907178252796 32.85316854870544 50.42137123662957 H 0.0 **** 0.06
17421 C 80.97722141264563 87.67301854149605 30.322816953918256 C 0.0 **** -0.24
17422 H 81.72125375202626 86.96153922856837 29.963213455368702 H 0.0 **** 0.06
17423 H 80.34429329888695 87.19044511782886 31.0678723042176 H 0.0 **** 0.06
17424 H 80.36383306205084 88.00978424589016 29.487371492677767 H 0.0 **** 0.06
17425 H 81.48109388121634 88.52909387857255 30.771805952115315 H 0.0 **** 0.06
17426 C 52.07561480283427 54.7325226353131 62.67479437351494 C 0.0 **** -0.24
17427 H 51.49007676491796 53.81969767154118 62.56943169134212 H 0.0 **** 0.06
17428 H 53.13086690831983 54.50577121352961 62.52240229345665 H 0.0 **** 0.06
17429 H 51.93196422255834 55.142202537285016 63.674534556945844 H 0.0 **** 0.06
17430 H 51.74923652968557 55.461152548568975 61.9333537671414 H 0.0 **** 0.06
17431 C 86.0947939762202 18.019223680409446 36.012107316180675 C 0.0 **** -0.24
17432 H 86.07048679329169 17.811684221283038 34.942371796566334 H 0.0 **** 0.06
17433 H 87.1284737134863 18.016080807466274 36.359527724200206 H 0.0 **** 0.06
17434 H 85.53056833004192 17.252272211689352 36.543802233429346 H 0.0 **** 0.06
17435 H 85.64940841146033 18.995470180699243 36.20286372386818 H 0.0 **** 0.06
17436 C 106.77353536934686 60.52511712397711 81.87589029124001 C 0.0 **** -0.24
17437 H 107.44322013142835 60.58689853940734 81.01781456153407 H 0.0 **** 0.06
17438 H 107.29101257980204 60.88469038818107 82.76596558417532 H 0.0 **** 0.06
17439 H 106.46942492226947 59.488910609133086 82.0260718020109 H 0.0 **** 0.06
17440 H 105.89167068849099 61.13975874656444 81.69444903090857 H 0.0 **** 0.06
17441 C 6.946072438675559 11.850590077237072 98.80000142732644 C 0.0 **** -0.24
17442 H 7.108934768392258 11.059346145954208 99.53187605062905 H 0.0 **** 0.06
17443 H 6.642437948275774 12.76303326438051 99.31271387421998 H 0.0 **** 0.06
17444 H 6.164019098176965 11.546277151966237 98.10431775265292 H 0.0 **** 0.06
17445 H 7.869738807868137 12.032568306764887 98.25103613684956 H 0.0 **** 0.06
17446 C 65.26368801000241 51.59216971561603 66.07203255688135 C 0.0 **** -0.24
17447 H 65.60114072192864 51.75609314573692 65.04894737312821 H 0.0 **** 0.06
17448 H 64.5115188649378 52.338626276025195 66.3297859431224 H 0.0 **** 0.06
17449 H 66.11012520608273 51.67841948147026 66.75303885656442 H 0.0 **** 0.06
17450 H 64.83063060773638 50.5950779231633 66.15635242323727 H 0.0 **** 0.06
17451 C 9.62342737786662 107.54405415840986 75.9362888011299 C 0.0 **** -0.24
17452 H 10.639835614939557 107.688097953039 75.56989115679076 H 0.0 **** 0.06
17453 H 9.030716268796027 108.43292354644458 75.72001048447575 H 0.0 **** 0.06
17454 H 9.645981299770767 107.37382324383367 77.01297368844314 H 0.0 **** 0.06
17455 H 9.17839382735275 106.68105050359657 75.44163604290196 H 0.0 **** 0.06
17456 C 84.41219132259067 53.76944066776397 1.6187432370011265 C 0.0 **** -0.24
17457 H 84.84467687187731 53.990674981401924 0.6424849529452672 H 0.0 **** 0.06
17458 H 83.32494330053191 53.81013280947519 1.551034624165709 H 0.0 **** 0.06
17459 H 84.76049561420871 54.50358104174734 2.3450204335215403 H 0.0 **** 0.06
17460 H 84.71897543686703 52.77204330880272 1.9344022232908742 H 0.0 **** 0.06
17461 C 29.644760896624774 88.54681223754869 104.92759147886574 C 0.0 **** -0.24
17462 H 29.33582312822344 89.1896903482941 104.1038932977574 H 0.0 **** 0.06
17463 H 28.78193486809323 88.31845927106087 105.55397376673722 H 0.0 **** 0.06
17464 H 30.40136490178378 89.05824776139593 105.52332017910373 H 0.0 **** 0.06
17465 H 30.059884508740367 87.62125257914118 104.53009406200954 H 0.0 **** 0.06
17466 C 38.142618270075786 28.114042372572413 109.99528511569336 C 0.0 **** -0.24
17467 H 37.915650087450445 29.056001391138807 109.49665482428668 H 0.0 **** 0.06
17468 H 38.88289912594138 27.56520440672719 109.41306290503447 H 0.0 **** 0.06
17469 H 37.23370667957772 27.519192634466407 110.0802969512094 H 0.0 **** 0.06
17470 H 38.54031148315869 28.316342883378013 110.98999119780014 H 0.0 **** 0.06
17471 C 6.927146949638967 80.08084728396989 81.3811102286697 C 0.0 **** -0.24
17472 H 7.895887179032968 79.82367468748313 80.95317313485127 H 0.0 **** 0.06
17473 H 6.4547225638335135 80.85275961796535 80.77289303777569 H 0.0 **** 0.06
17474 H 7.066008403885192 80.45275605056909 82.39662732051237 H 0.0 **** 0.06
17475 H 6.292321939308991 79.19543387112682 81.40115534316156 H 0.0 **** 0.06
17476 C 84.55095247233783 109.47410069480011 76.98566341464786 C 0.0 **** -0.24
17477 H 83.51553095222957 109.69086206696568 76.72222773195367 H 0.0 **** 0.06
17478 H 84.65659056800123 109.46933169590183 78.07076637453207 H 0.0 **** 0.06
17479 H 85.20144216589841 110.23959426169483 76.56060293906773 H 0.0 **** 0.06
17480 H 84.83079040126128 108.49884298891463 76.58819686791517 H 0.0 **** 0.06
17481 C 100.35152708876268 39.38106696042689 54.46759909220045 C 0.0 **** -0.24
17482 H 100.27265995922347 40.35310199949262 54.95447219034001 H 0.0 **** 0.06
17483 H 100.04380699337416 39.47182570631281 53.425963965390146 H 0.0 **** 0.06
17484 H 99.70528436088463 38.666083729048296 54.97699862294899 H 0.0 **** 0.06
17485 H 101.38435951481678 39.03519242122991 54.51346365552281 H 0.0 **** 0.06
17486 C 115.31253111028478 94.72136812186872 81.8363761366696 C 0.0 **** -0.24
17487 H 114.33382225102649 94.31096042827886 81.58985232481018 H 0.0 **** 0.06
17488 H 115.97582972437547 93.9156607502403 82.15286816164719 H 0.0 **** 0.06
17489 H 115.20977977648855 95.44687087401934 82.64315520011398 H 0.0 **** 0.06
17490 H 115.7320123491559 95.21253277601215 80.95764045415305 H 0.0 **** 0.06
17491 C 73.90448576562937 38.40057066888883 114.23580915517535 C 0.0 **** -0.24
17492 H 74.32959727891819 39.013060491947726 113.44065006777988 H 0.0 **** 0.06
17493 H 74.24137834900199 38.774637547650926 115.20200522560106 H 0.0 **** 0.06
17494 H 74.22999954696695 37.36728277792878 114.11183126001963 H 0.0 **** 0.06
17495 H 72.8161935698447 38.44603614045597 114.18740894148904 H 0.0 **** 0.06
17496 C 95.18750786236146 18.414745525995894 51.09157267433875 C 0.0 **** -0.24
17497 H 94.48085068251333 19.120848798304664 51.52749737651902 H 0.0 **** 0.06
17498 H 95.91426963354326 18.955408728028516 50.485256597562085 H 0.0 **** 0.06
17499 H 94.64990916497973 17.70173811646936 50.467011554339564 H 0.0 **** 0.06
17500 H 95.70549415823302 17.880588851556993 51.88889160020028 H 0.0 **** 0.06
17501 C 33.20071515532168 23.19654811079519 4.578108056508086 C 0.0 **** -0.24
17502 H 34.15649835213211 22.77890557907196 4.261896511678515 H 0.0 **** 0.06
17503 H 32.83187423382531 23.88057161795362 3.8124600389725742 H 0.0 **** 0.06
17504 H 33.33266977291264 23.73674115602597 5.514863589694187 H 0.0 **** 0.06
17505 H 32.481951180582584 22.389499197837466 4.721031009259548 H 0.0 **** 0.06
17506 C 94.65312720528894 20.634626098088972 10.645361208724239 C 0.0 **** -0.24
17507 H 95.6031200173758 20.205702781027213 10.966051195295165 H 0.0 **** 0.06
17508 H 93.87778225255988 19.86958861091486 10.685441110883062 H 0.0 **** 0.06
17509 H 94.74837934292228 21.004425781204105 9.624856563680027 H 0.0 **** 0.06
17510 H 94.38614737127708 21.457946232543435 11.306759116248145 H 0.0 **** 0.06
17511 C 112.3115132194349 21.11661305986445 96.4005170180265 C 0.0 **** -0.24
17512 H 111.68609422485082 21.19613019323066 97.28980306433641 H 0.0 **** 0.06
17513 H 112.76012382268638 20.12416815514743 96.35958806908445 H 0.0 **** 0.06
17514 H 113.0973871892412 21.870681520259154 96.44082086287159 H 0.0 **** 0.06
17515 H 111.70006585633864 21.276930696312945 95.51230423166453 H 0.0 **** 0.06
17516 C 15.900411611446067 90.727934200574 8.086982369205685 C 0.0 **** -0.24
17517 H 14.994821293303165 90.13914707549446 7.945121937345377 H 0.0 **** 0.06
17518 H 16.618578404368332 90.48362527262407 7.303800908497394 H 0.0 **** 0.06
17519 H 16.333595733373407 90.49925106107469 9.061058408445433 H 0.0 **** 0.06
17520 H 15.655804368149244 91.78901587973922 8.037520011437621 H 0.0 **** 0.06
17521 C 9.700960770827734 33.91543058207765 21.163390281748065 C 0.0 **** -0.24
17522 H 9.700811179197089 33.573424226293554 20.128198892656584 H 0.0 **** 0.06
17523 H 9.91258736684577 34.98442351440565 21.193554298364774 H 0.0 **** 0.06
17524 H 10.46686090592155 33.37813369298152 21.723271186411893 H 0.0 **** 0.06
17525 H 8.72521678661991 33.72423611549897 21.60879890968296 H 0.0 **** 0.06
17526 C 69.0270069956852 58.12786490807983 99.3716878563393 C 0.0 **** -0.24
17527 H 68.12193964005964 57.5205827721872 99.33052804175121 H 0.0 **** 0.06
17528 H 68.75782671936088 59.16963154402032 99.5454140738031 H 0.0 **** 0.06
17529 H 69.5632222002823 58.043228674861325 98.42578109984964 H 0.0 **** 0.06
17530 H 69.66353339237645 57.77587416403128 100.1825498229339 H 0.0 **** 0.06
17531 C 69.1694935786726 86.7703950686722 107.48934670965298 C 0.0 **** -0.24
17532 H 69.98133846462548 87.49674199688172 107.5137091309317 H 0.0 **** 0.06
17533 H 69.35788559378683 86.04176366193623 106.69999992066879 H 0.0 **** 0.06
17534 H 68.22814590868269 87.28459333667479 107.29283381128693 H 0.0 **** 0.06
17535 H 69.11080036619843 86.25830971650103 108.4498784707732 H 0.0 **** 0.06
17536 C 50.9043125576398 56.521120202275995 77.503419412239 C 0.0 **** -0.24
17537 H 50.12658119457586 56.38076185516593 78.25413574858248 H 0.0 **** 0.06
17538 H 51.70017415061989 55.79291981708141 77.66470539399107 H 0.0 **** 0.06
17539 H 51.31066528099606 57.52807508328192 77.5861101722105 H 0.0 **** 0.06
17540 H 50.47955557962834 56.38044615304034 76.50958448379191 H 0.0 **** 0.06
17541 C 83.48286330846128 110.09158033891954 52.99709333655926 C 0.0 **** -0.24
17542 H 83.5295570078195 109.15796256576203 52.436439156845495 H 0.0 **** 0.06
17543 H 84.09007525303107 110.00517272107462 53.897646987948406 H 0.0 **** 0.06
17544 H 82.44852856284223 110.29691060468815 53.27375865004251 H 0.0 **** 0.06
17545 H 83.86141670582887 110.90546908968606 52.379175098527185 H 0.0 **** 0.06
17546 C 105.49181663499365 88.08278137874301 63.47144346570303 C 0.0 **** -0.24
17547 H 106.09358342141434 87.43345228415335 62.83551420946499 H 0.0 **** 0.06
17548 H 104.95689731368867 88.80328511355134 62.85271554394936 H 0.0 **** 0.06
17549 H 106.14206332693988 88.61243534249428 64.16696515169065 H 0.0 **** 0.06
17550 H 104.7756182882591 87.4799652925079 64.03107667490848 H 0.0 **** 0.06
17551 C 90.90769317890297 38.28471900537721 31.21486525720764 C 0.0 **** -0.24
17552 H 91.67930569025486 37.74222565426908 30.66885826664577 H 0.0 **** 0.06
17553 H 89.95219625900579 38.17011917550661 30.703574697562203 H 0.0 **** 0.06
17554 H 91.17027786168792 39.34154061594171 31.261885657229435 H 0.0 **** 0.06
17555 H 90.8295364820029 37.885050144373565 32.226446665413505 H 0.0 **** 0.06
17556 C 2.734901709645868 45.807138945904114 22.860161013730533 C 0.0 **** -0.24
17557 H 1.927300766212369 45.8722816248587 22.130732658167403 H 0.0 **** 0.06
17558 H 2.3146871997015523 45.65423511655497 23.85508203412462 H 0.0 **** 0.06
17559 H 3.311141416029926 46.73241304613444 22.847464235431175 H 0.0 **** 0.06
17560 H 3.385358718699109 44.97041289830116 22.607005510708433 H 0.0 **** 0.06
17561 C 90.79896214145236 82.86060336083904 99.61999724574832 C 0.0 **** -0.24
17562 H 90.00344663014016 82.46908400274788 98.98582910641201 H 0.0 **** 0.06
17563 H 91.59798107780291 83.25992732883424 98.9949318969912 H 0.0 **** 0.06
17564 H 91.19343077424652 82.0579892283823 100.24422371352676 H 0.0 **** 0.06
17565 H 90.40226367916536 83.65304236245134 100.25367795666642 H 0.0 **** 0.06
17566 C 58.028087052519595 39.339207042961505 75.5674810157173 C 0.0 **** -0.24
17567 H 57.98093248852862 40.401873243617956 75.33018683221212 H 0.0 **** 0.06
17568 H 59.048532838061476 38.98183439105725 75.43186869507934 H 0.0 **** 0.06
17569 H 57.35987110652184 38.790084081112695 74.90395634517745 H 0.0 **** 0.06
17570 H 57.72231233497956 39.18340234172712 76.60159330063203 H 0.0 **** 0.06
17571 C 55.513103066752294 9.075606627516777 39.67875123020244 C 0.0 **** -0.24
17572 H 54.798958222460996 9.141987678887517 40.500310919797215 H 0.0 **** 0.06
17573 H 55.24159957556962 9.790901475167686 38.90270248078707 H 0.0 **** 0.06
17574 H 55.497552168960645 8.067082858685069 39.2661248809257 H 0.0 **** 0.06
17575 H 56.513288697754845 9.30213252828247 40.048671894750555 H 0.0 **** 0.06
17576 C 104.32750875371488 30.68927419272032 94.2256855556731 C 0.0 **** -0.24
17577 H 103.37422427847171 30.57013159067 93.71160846644118 H 0.0 **** 0.06
17578 H 104.72551071322036 31.684707360594757 94.0257659005531 H 0.0 **** 0.06
17579 H 105.03087342638365 29.93741897778645 93.86574318473583 H 0.0 **** 0.06
17580 H 104.18032493178386 30.56500696332739 95.29815331105506 H 0.0 **** 0.06
17581 C 75.2496915786259 89.24058251316234 40.55007788906926 C 0.0 **** -0.24
17582 H 74.1925819673008 88.98042467580973 40.60278191384535 H 0.0 **** 0.06
17583 H 75.36181948086602 90.32266041308702 40.616675897137156 H 0.0 **** 0.06
17584 H 75.66282326383046 88.890266797518 39.60407066022043 H 0.0 **** 0.06
17585 H 75.78187020860304 88.76818744152092 41.37527744798433 H 0.0 **** 0.06
17586 C 0.45949553205639404 60.11604354637342 9.349852180405435 C 0.0 **** -0.24
17587 H 0.30357610531928003 59.9353727755079 10.413367462016083 H 0.0 **** 0.06
17588 H -0.3887697965776056 59.72795516354947 8.787333907207653 H 0.0 **** 0.06
17589 H 1.3720866505599645 59.613685578279046 9.026763090463362 H 0.0 **** 0.06
17590 H 0.5537035440583509 61.18741918939932 9.174413866888983 H 0.0 **** 0.06
17591 C 66.25035271875106 35.35271438824111 9.78021996325188 C 0.0 **** -0.24
17592 H 66.31190932257397 35.685804935052545 8.744710926793061 H 0.0 **** 0.06
17593 H 66.13203575887184 36.21816958356297 10.433575193854693 H 0.0 **** 0.06
17594 H 67.16356352658318 34.81947360684751 10.045072494314738 H 0.0 **** 0.06
17595 H 65.39498930998616 34.6882712375031 9.897796437494819 H 0.0 **** 0.06
17596 C 69.19386707232898 104.2865500819359 6.532737175181296 C 0.0 **** -0.24
17597 H 68.52598473347672 103.7254228979366 5.879447808157266 H 0.0 **** 0.06
17598 H 69.7118614420642 105.05016603394051 5.951490126502051 H 0.0 **** 0.06
17599 H 69.92393309555487 103.60974537933248 6.9753402539633385 H 0.0 **** 0.06
17600 H 68.61290515603152 104.76307161923518 7.322544143034406 H 0.0 **** 0.06
17601 C 33.624373887848094 84.36496590801374 112.27220528387484 C 0.0 **** -0.24
17602 H 34.16927655811101 85.30069039365955 112.39577834768397 H 0.0 **** 0.06
17603 H 33.21393673149518 84.31446175437407 111.26324578181443 H 0.0 **** 0.06
17604 H 32.812771998787554 84.31905146390599 112.9977745386818 H 0.0 **** 0.06
17605 H 34.30224982738008 83.52633170489315 112.43197841112851 H 0.0 **** 0.06
17606 C 41.6737800084475 7.52166060131367 110.33842379558291 C 0.0 **** -0.24
17607 H 42.2670104754147 8.343150125286684 109.93808635211957 H 0.0 **** 0.06
17608 H 40.84116901485952 7.313744804122109 109.6663698467575 H 0.0 **** 0.06
17609 H 41.28864814911506 7.797252964385166 111.31992765572136 H 0.0 **** 0.06
17610 H 42.29909141572586 6.633463029391464 110.42996221302519 H 0.0 **** 0.06
17611 C 71.05849866077597 56.32106303845019 36.489601571286585 C 0.0 **** -0.24
17612 H 72.01361645844443 56.734943520887896 36.16787741409985 H 0.0 **** 0.06
17613 H 71.23455289549162 55.45006356778896 37.12060899262974 H 0.0 **** 0.06
17614 H 70.47820996025405 56.02658321847375 35.615383525536345 H 0.0 **** 0.06
17615 H 70.50822491966647 57.0742756427512 37.0546920186909 H 0.0 **** 0.06
17616 C 76.45520178597344 43.49684188757209 44.48682943771011 C 0.0 **** -0.24
17617 H 76.07061656735263 44.44767763039658 44.85569004969456 H 0.0 **** 0.06
17618 H 77.49702161393918 43.618001657825545 44.18930240026806 H 0.0 **** 0.06
17619 H 75.86659294796142 43.17423606569494 43.62849522166116 H 0.0 **** 0.06
17620 H 76.38744025337503 42.747959158745346 45.27582917022818 H 0.0 **** 0.06
17621 C 37.49734736907214 44.36038533123309 115.83399314028873 C 0.0 **** -0.24
17622 H 37.7723200901265 45.1769843475025 115.16703995143152 H 0.0 **** 0.06
17623 H 37.85386209573273 44.57685808437188 116.84063771764671 H 0.0 **** 0.06
17624 H 37.94899252657276 43.43452222475128 115.47902319350916 H 0.0 **** 0.06
17625 H 36.41261432367826 44.25366217035889 115.84748194434842 H 0.0 **** 0.06
17626 C 18.146130891478577 73.35887287858722 88.59709985276561 C 0.0 **** -0.24
17627 H 18.506273769787555 72.33888594078462 88.46230253738193 H 0.0 **** 0.06
17628 H 17.06845867564516 73.38704954880237 88.43365179010479 H 0.0 **** 0.06
17629 H 18.640733787447274 74.01613570282163 87.88226904671623 H 0.0 **** 0.06
17630 H 18.368156915184187 73.69182550535567 89.61097980001136 H 0.0 **** 0.06
17631 C 96.39189311111716 91.20474178687596 70.32877237155395 C 0.0 **** -0.24
17632 H 95.71940960560909 91.99086060410855 69.98393073730367 H 0.0 **** 0.06
17633 H 95.86811691299786 90.56742875373266 71.04197375030056 H 0.0 **** 0.06
17634 H 97.25945926599162 91.65381263031139 70.80998934309487 H 0.0 **** 0.06
17635 H 96.71680458572044 90.60679269863653 69.477555036358 H 0.0 **** 0.06
17636 C 79.0154922916007 65.17973433281395 31.581800482849033 C 0.0 **** -0.24
17637 H 78.22906565904752 65.08193732700664 32.32857040363245 H 0.0 **** 0.06
17638 H 79.09767361328869 66.22277881300886 31.27513937856289 H 0.0 **** 0.06
17639 H 78.77311841411097 64.5640106740056 30.71518183643135 H 0.0 **** 0.06
17640 H 79.96341729174692 64.84964885852952 32.00732058267922 H 0.0 **** 0.06
17641 C 59.18206062266134 69.88707004222158 77.71208366697587 C 0.0 **** -0.24
17642 H 58.98767498017136 70.04121368882882 76.65085066101284 H 0.0 **** 0.06
17643 H 58.99535723917083 70.81453411962958 78.25365619197109 H 0.0 **** 0.06
17644 H 60.220825973360306 69.58732453175962 77.85089912722825 H 0.0 **** 0.06
17645 H 58.52462776766629 69.1049013991271 78.0920084266998 H 0.0 **** 0.06
17646 C 44.17818484314114 39.42829695472845 31.992778251155954 C 0.0 **** -0.24
17647 H 44.44007884893573 38.930896286914475 31.05921217014273 H 0.0 **** 0.06
17648 H 44.22176627799264 40.50808873790899 31.853821912815675 H 0.0 **** 0.06
17649 H 44.8820086949099 39.13329319821139 32.771753466241194 H 0.0 **** 0.06
17650 H 43.16912271131875 39.13918809833879 32.287315621330634 H 0.0 **** 0.06
17651 C 94.35375145682764 71.52762855838472 63.03065848600403 C 0.0 **** -0.24
17652 H 93.54061957448454 71.68002222237408 62.32253834177675 H 0.0 **** 0.06
17653 H 93.95228208894645 71.1431793004391 63.96806215903911 H 0.0 **** 0.06
17654 H 94.85880198473956 72.47631710294681 63.21391403432068 H 0.0 **** 0.06
17655 H 95.0654250715848 70.81136495453785 62.618717066765385 H 0.0 **** 0.06
17656 C 14.597859859264872 105.35801522632089 88.785387018387 C 0.0 **** -0.24
17657 H 14.99208653741698 106.36575303418624 88.65573991505339 H 0.0 **** 0.06
17658 H 13.805931211443749 105.18159521840089 88.05710988463903 H 0.0 **** 0.06
17659 H 14.194946209507577 105.25324103456138 89.79309359908204 H 0.0 **** 0.06
17660 H 15.39772302930021 104.63370961534045 88.63625700106785 H 0.0 **** 0.06
17661 C 100.44992962117362 37.12872135624076 6.127491670431169 C 0.0 **** -0.24
17662 H 101.45911893149531 36.959693793724284 6.505305471610086 H 0.0 **** 0.06
17663 H 100.14119424871618 36.27492985047354 5.522896611040807 H 0.0 **** 0.06
17664 H 100.43748429584633 38.03081324838678 5.516263518864548 H 0.0 **** 0.06
17665 H 99.76460595262898 37.24704459058961 6.966507527279248 H 0.0 **** 0.06
17666 C 101.95313413118367 29.49462500119094 71.63474532873886 C 0.0 **** -0.24
17667 H 101.75920681930239 28.87156964470981 72.50778185070389 H 0.0 **** 0.06
17668 H 101.02551148963138 29.643616256944483 71.08119907847185 H 0.0 **** 0.06
17669 H 102.68396431133235 29.001805574435508 70.99288407906907 H 0.0 **** 0.06
17670 H 102.34426099585127 30.459437540522885 71.95587307469043 H 0.0 **** 0.06
17671 C 103.39455567002298 111.70208385904355 45.86311495640348 C 0.0 **** -0.24
17672 H 104.13706474496612 112.47694081951425 46.051811735957045 H 0.0 **** 0.06
17673 H 102.4250574622873 112.02819929027115 46.241440978645926 H 0.0 **** 0.06
17674 H 103.69143653128972 110.78321491167911 46.37015464723612 H 0.0 **** 0.06
17675 H 103.32389153112672 111.51824604794686 44.79137536408072 H 0.0 **** 0.06
17676 C 3.0391666403221507 32.20946937659295 16.941413180251047 C 0.0 **** -0.24
17677 H 2.02677661343364 32.43919696107096 16.606874227268875 H 0.0 **** 0.06
17678 H 3.683016032159969 33.072187875129856 16.76649782361187 H 0.0 **** 0.06
17679 H 3.4197753094098857 31.354043560673887 16.385021088491882 H 0.0 **** 0.06
17680 H 3.0262993956527 31.97532633684699 18.00523879852838 H 0.0 **** 0.06
17681 C 81.32926361420846 91.27467506458018 86.36331621665065 C 0.0 **** -0.24
17682 H 82.17242314326852 90.70961664984986 85.96457242253311 H 0.0 **** 0.06
17683 H 81.07907211194478 92.08502850078142 85.67874915399258 H 0.0 **** 0.06
17684 H 81.59697592775731 91.68802365434777 87.33522493640922 H 0.0 **** 0.06
17685 H 80.47008636034688 90.61243425828013 86.47337601042997 H 0.0 **** 0.06
17686 C 71.96512178560644 18.131750455381905 43.413807977923796 C 0.0 **** -0.24
17687 H 71.55552080617883 17.38315209732002 44.091840483490984 H 0.0 **** 0.06
17688 H 71.60511831498144 19.119673464469457 43.70362044782917 H 0.0 **** 0.06
17689 H 71.64601602727458 17.912923746977498 42.39442189601991 H 0.0 **** 0.06
17690 H 73.05405579244223 18.112503320211488 43.46596997782271 H 0.0 **** 0.06
17691 C 87.06809403594303 39.2089278603857 4.802252246117121 C 0.0 **** -0.24
17692 H 86.94634199429805 38.340521436625664 4.153888654162614 H 0.0 **** 0.06
17693 H 86.35282048564369 39.97919561791596 4.512894482120942 H 0.0 **** 0.06
17694 H 88.08071839367642 39.5972896898962 4.702796521481133 H 0.0 **** 0.06
17695 H 86.89001724011138 38.91690735055235 5.836491651433278 H 0.0 **** 0.06
17696 C 8.298396424180481 89.22017683195062 91.46092699983893 C 0.0 **** -0.24
17697 H 8.815488270314432 88.51962566122114 92.11679638194107 H 0.0 **** 0.06
17698 H 8.65150801549926 90.23167268095119 91.65971045372191 H 0.0 **** 0.06
17699 H 7.225313990478583 89.1654414319937 91.64560972624452 H 0.0 **** 0.06
17700 H 8.501165230248048 88.96097149218168 90.4214819584895 H 0.0 **** 0.06
17701 C 2.8494800555201785 75.04012326652382 91.69293231321517 C 0.0 **** -0.24
17702 H 1.896452031261413 74.59342249133735 91.9774487337862 H 0.0 **** 0.06
17703 H 2.6691307625423377 75.89777498494423 91.04488276714906 H 0.0 **** 0.06
17704 H 3.4518688688816024 74.30308112625644 91.16188602920181 H 0.0 **** 0.06
17705 H 3.3796612360774763 75.36567825030323 92.58775822073406 H 0.0 **** 0.06
17706 C 75.75233751129855 80.17148435267859 109.48464779054282 C 0.0 **** -0.24
17707 H 76.67828681999902 80.51896179827025 109.02588218122881 H 0.0 **** 0.06
17708 H 74.93745684082683 80.25434388526025 108.7657101535847 H 0.0 **** 0.06
17709 H 75.52904188260263 80.78262098545633 110.35948072621551 H 0.0 **** 0.06
17710 H 75.8659799334255 79.13062225638868 109.78830726121645 H 0.0 **** 0.06
17711 C 0.9113561672822215 104.46622041936348 77.67737187519077 C 0.0 **** -0.24
17712 H 1.4120528656778077 105.42422716303088 77.54174599540625 H 0.0 **** 0.06
17713 H 0.02258695630811758 104.6057868220019 78.29330295934375 H 0.0 **** 0.06
17714 H 1.588478467089189 103.76779990492463 78.16866374843482 H 0.0 **** 0.06
17715 H 0.6203194545711881 104.0680193436973 76.70470381247299 H 0.0 **** 0.06
17716 C 83.90629206137098 19.986625613716285 92.20809261377025 C 0.0 **** -0.24
17717 H 83.00101894723547 20.04886388884239 91.6041410074364 H 0.0 **** 0.06
17718 H 84.17735418870178 18.93972323852651 92.34937024840485 H 0.0 **** 0.06
17719 H 83.72807435554834 20.449764079721007 93.1786093669096 H 0.0 **** 0.06
17720 H 84.71861037738968 20.507172959545386 91.70042540569239 H 0.0 **** 0.06
17721 C 63.5216745761507 106.1818652385153 71.37427445932485 C 0.0 **** -0.24
17722 H 64.16950084508989 106.29709347374879 72.24346209879008 H 0.0 **** 0.06
17723 H 63.92377174644048 105.407338029202 70.72196397813701 H 0.0 **** 0.06
17724 H 63.47153618253819 107.12581648107464 70.83150862571716 H 0.0 **** 0.06
17725 H 62.522077463981304 105.89826391402593 71.70313983859921 H 0.0 **** 0.06
17726 C 60.92750488929319 105.58035676828104 107.44399908689658 C 0.0 **** -0.24
17727 H 61.00148249860341 106.47532356953639 106.82569226303258 H 0.0 **** 0.06
17728 H 61.90510516017335 105.10376184380266 107.51041816820015 H 0.0 **** 0.06
17729 H 60.21411680957209 104.888770474583 106.99538185451107 H 0.0 **** 0.06
17730 H 60.58846299823173 105.85640612963385 108.44221543173637 H 0.0 **** 0.06
17731 C 22.39244990894676 78.81851991609206 74.92267334945913 C 0.0 **** -0.24
17732 H 21.33606247323098 78.96904232570878 75.14486726728154 H 0.0 **** 0.06
17733 H 22.50174219232477 78.47507217548771 73.8940541817338 H 0.0 **** 0.06
17734 H 22.803362282300697 78.0702765081897 75.60122728084016 H 0.0 **** 0.06
17735 H 22.92865005335011 79.75918228586364 75.05140684291686 H 0.0 **** 0.06
17736 C 53.04502785971016 40.36410773808029 106.57611789496565 C 0.0 **** -0.24
17737 H 53.690451363655825 40.9313677719249 105.90675251477768 H 0.0 **** 0.06
17738 H 52.6521040756536 41.02527641590717 107.34942476487919 H 0.0 **** 0.06
17739 H 53.61915395900482 39.56230295456476 107.04170991890271 H 0.0 **** 0.06
17740 H 52.218987326973235 39.936832451842406 106.00807881865865 H 0.0 **** 0.06
17741 C 96.74116018344668 74.29558196822126 50.076275658293056 C 0.0 **** -0.24
17742 H 95.97393256450691 74.94515685760084 50.497817836784876 H 0.0 **** 0.06
17743 H 97.53320954854695 74.14471348435751 50.809772801459644 H 0.0 **** 0.06
17744 H 97.15739622690296 74.75888650201502 49.180565248326175 H 0.0 **** 0.06
17745 H 96.29901410875371 73.33371853671481 49.814340152667086 H 0.0 **** 0.06
17746 C 42.970212239126596 15.682374908659483 15.398351217431724 C 0.0 **** -0.24
17747 H 43.52195120392969 15.441845724833556 16.306827057462414 H 0.0 **** 0.06
17748 H 42.515102255579905 14.776554270742736 14.998780969698458 H 0.0 **** 0.06
17749 H 43.652535145452134 16.10302285768205 14.65921702805855 H 0.0 **** 0.06
17750 H 42.19205060289832 16.410147565298345 15.628283772161211 H 0.0 **** 0.06
17751 C 79.36064870345716 13.912114133241545 44.983767837410966 C 0.0 **** -0.24
17752 H 79.22910668329926 12.871325214282706 44.68885658979195 H 0.0 **** 0.06
17753 H 78.56610015619002 14.51645542281031 44.54515204614751 H 0.0 **** 0.06
17754 H 80.32797516744037 14.269361912932851 44.62891130798991 H 0.0 **** 0.06
17755 H 79.3200722243423 13.99036261319364 46.06999260850043 H 0.0 **** 0.06
17756 C 43.261638733864594 74.11807280249275 71.92791110256364 C 0.0 **** -0.24
17757 H 42.79421996667273 74.39414897871393 70.98188822569864 H 0.0 **** 0.06
17758 H 44.31993709843023 74.37796679390954 71.90010371303406 H 0.0 **** 0.06
17759 H 43.15469720181445 73.04440703644576 72.08525128780686 H 0.0 **** 0.06
17760 H 42.77588070848803 74.65539349748093 72.74280508409316 H 0.0 **** 0.06
17761 C 24.066660263788002 70.78793251985077 10.29249564437825 C 0.0 **** -0.24
17762 H 24.751474070832977 71.49446250460802 9.822902185243322 H 0.0 **** 0.06
17763 H 23.52540063319723 71.28724083977838 11.095583259724833 H 0.0 **** 0.06
17764 H 24.632577017932853 69.95073075271111 10.6999756215221 H 0.0 **** 0.06
17765 H 23.358936997033986 70.42009119819204 9.54921633976295 H 0.0 **** 0.06
17766 C 13.796497490977146 111.78906268955922 0.7241568723563887 C 0.0 **** -0.24
17767 H 14.713447011577415 111.8107869278468 0.13521274133222505 H 0.0 **** 0.06
17768 H 13.00797585943863 112.3164283666382 0.18560071287755875 H 0.0 **** 0.06
17769 H 13.969938973622732 112.27521836211844 1.683570339059088 H 0.0 **** 0.06
17770 H 13.49567772366072 110.75439811248998 0.8891515476335172 H 0.0 **** 0.06
17771 C 75.3539139542547 70.15371216317472 57.66508138503697 C 0.0 **** -0.24
17772 H 76.24127080811336 70.74498399219468 57.43653367263633 H 0.0 **** 0.06
17773 H 74.51661618130545 70.82082629208293 57.872794644132654 H 0.0 **** 0.06
17774 H 75.54764780054474 69.5305839575221 58.536686710436086 H 0.0 **** 0.06
17775 H 75.11105840777378 69.52027338746824 56.81151528057772 H 0.0 **** 0.06
17776 C 4.542239456618333 91.6588683342199 85.13928940382907 C 0.0 **** -0.24
17777 H 4.091175681509853 91.80907113210765 84.15879457779484 H 0.0 **** 0.06
17778 H 5.183318402090876 92.5087010723829 85.37783451615942 H 0.0 **** 0.06
17779 H 5.136794670083248 90.74605372327295 85.13045399169033 H 0.0 **** 0.06
17780 H 3.757119390570452 91.57391933661967 85.89080701588261 H 0.0 **** 0.06
17781 C 24.48997612091813 92.91042921024285 48.58828082112578 C 0.0 **** -0.24
17782 H 24.81021142052964 92.02133107787324 48.045810201123345 H 0.0 **** 0.06
17783 H 24.69016750567681 92.77956535697848 49.65155811142343 H 0.0 **** 0.06
17784 H 23.42172416947909 93.06379346686015 48.43503679739035 H 0.0 **** 0.06
17785 H 25.03783817702083 93.77806830009536 48.2190110009882 H 0.0 **** 0.06
17786 C 37.21474679252509 3.509793259901585 54.612090096153736 C 0.0 **** -0.24
17787 H 36.962846013049614 3.9073595838402895 53.628644824571154 H 0.0 **** 0.06
17788 H 37.19789721658054 4.316908983919475 55.34508457432429 H 0.0 **** 0.06
17789 H 38.20977165733336 3.0673300906756253 54.5806521503344 H 0.0 **** 0.06
17790 H 36.487676625043434 2.7478035384635433 54.8928323063372 H 0.0 **** 0.06
17791 C 114.74865266501237 32.76718475800183 99.82640252836286 C 0.0 **** -0.24
17792 H 114.74772362479865 31.763180827931826 99.40229783927315 H 0.0 **** 0.06
17793 H 114.09391652948645 32.7936184871411 100.69760768245217 H 0.0 **** 0.06
17794 H 114.39046911836095 33.477001115442256 99.08043545930178 H 0.0 **** 0.06
17795 H 115.7623824267846 33.03394773406875 100.12520520291007 H 0.0 **** 0.06
17796 C 93.06584951449477 20.769602332782142 98.85937322402674 C 0.0 **** -0.24
17797 H 94.07434439090724 21.049307556257133 99.16345315916065 H 0.0 **** 0.06
17798 H 92.43380047749059 20.671012144227632 99.74313714356188 H 0.0 **** 0.06
17799 H 93.09734023617034 19.818684724718594 98.3270851275626 H 0.0 **** 0.06
17800 H 92.656825211855 21.539060883012098 98.2046532769652 H 0.0 **** 0.06
17801 C 110.18004060233709 26.696881137771413 1.7369777740653376 C 0.0 **** -0.24
17802 H 110.0761597521148 25.68392657384311 2.126393230640872 H 0.0 **** 0.06
17803 H 109.708992603481 26.757090517796883 0.7554324540586776 H 0.0 **** 0.06
17804 H 111.2367949577393 26.945813757465345 1.6497353800540395 H 0.0 **** 0.06
17805 H 109.69549936803332 27.398119724832952 2.4163339302032227 H 0.0 **** 0.06
17806 C 56.784220431845256 91.17409110454474 31.11631753624522 C 0.0 **** -0.24
17807 H 57.5331268720459 91.0614095953224 31.900066577330335 H 0.0 **** 0.06
17808 H 55.9843231382344 91.82437658162667 31.4700033501108 H 0.0 **** 0.06
17809 H 56.37311058559686 90.19716332528463 30.862263696554976 H 0.0 **** 0.06
17810 H 57.246412841336166 91.6143598778211 30.23262236621099 H 0.0 **** 0.06
17811 C 102.649525110084 42.01136941465634 27.956299114841805 C 0.0 **** -0.24
17812 H 102.9231616801242 41.52776532842222 27.018291280003183 H 0.0 **** 0.06
17813 H 102.73172027169875 43.09256985576346 27.844611503057912 H 0.0 **** 0.06
17814 H 103.32010034132693 41.674161735039064 28.74725135385006 H 0.0 **** 0.06
17815 H 101.62410707036346 41.7488147062125 28.213515631238344 H 0.0 **** 0.06
17816 C 103.91866501959765 38.25920986331208 113.26893833733104 C 0.0 **** -0.24
17817 H 104.23133909833086 38.974823182786594 112.5083635118199 H 0.0 **** 0.06
17818 H 103.79097342596043 37.27666167172954 112.81296624569208 H 0.0 **** 0.06
17819 H 102.9746159787083 38.58302382200873 113.70611614080053 H 0.0 **** 0.06
17820 H 104.68015490972763 38.202386338477645 114.04795431540445 H 0.0 **** 0.06
17821 C 60.21805192965759 43.37963438568931 14.054554250346627 C 0.0 **** -0.24
17822 H 59.44436766003213 43.13140646902976 13.328329713269369 H 0.0 **** 0.06
17823 H 61.086136892630364 43.78621389758769 13.534955179086182 H 0.0 **** 0.06
17824 H 60.507994722802735 42.480419007467525 14.598188722743942 H 0.0 **** 0.06
17825 H 59.833781960771304 44.120901326378885 14.755389808528264 H 0.0 **** 0.06
17826 C 22.09571811618477 27.47342745057105 76.69691003936884 C 0.0 **** -0.24
17827 H 22.342278253992276 27.297482324807333 77.74473256967809 H 0.0 **** 0.06
17828 H 22.141558759468978 26.530948446285322 76.15032649225299 H 0.0 **** 0.06
17829 H 22.80910046628935 28.177386941026924 76.26882804819837 H 0.0 **** 0.06
17830 H 21.089371935992602 27.885923492282416 76.62594578763236 H 0.0 **** 0.06
17831 C 5.549731518318822 24.070822194993866 114.64758774868697 C 0.0 **** -0.24
17832 H 5.0489795332986205 23.12299345843107 114.45064948627758 H 0.0 **** 0.06
17833 H 5.247603303713504 24.44363805636212 115.62673302929292 H 0.0 **** 0.06
17834 H 5.272206396938373 24.794150232016193 113.88130524676089 H 0.0 **** 0.06
17835 H 6.629289419088309 23.92156617489286 114.63229313588289 H 0.0 **** 0.06
17836 C 36.256783353105234 98.55064138724907 55.967496987937466 C 0.0 **** -0.24
17837 H 35.581300123386995 97.86993452102291 55.44976240416631 H 0.0 **** 0.06
17838 H 36.5633547071311 98.10696357206638 56.9154213672615 H 0.0 **** 0.06
17839 H 35.74797202772349 99.49541580515631 56.15556563968423 H 0.0 **** 0.06
17840 H 37.13693829495898 98.72825105057609 55.348947328783936 H 0.0 **** 0.06
17841 C 31.176669772716565 17.616353156695936 112.16532496197385 C 0.0 **** -0.24
17842 H 30.154485228832613 17.96457238517445 112.31558711645982 H 0.0 **** 0.06
17843 H 31.768772612186112 17.83600082146009 113.05472632538374 H 0.0 **** 0.06
17844 H 31.610523588301426 18.126107545003492 111.30450213418482 H 0.0 **** 0.06
17845 H 31.172332925329677 16.54147484513601 111.9875602367344 H 0.0 **** 0.06
17846 C 64.67737696915154 39.20608993787286 88.16312494497237 C 0.0 **** -0.24
17847 H 65.70285374284691 39.56663179770416 88.08289088762291 H 0.0 **** 0.06
17848 H 64.16341223382193 39.35636494855693 87.21346697812538 H 0.0 **** 0.06
17849 H 64.15949111456442 39.7562310625169 88.9480844836209 H 0.0 **** 0.06
17850 H 64.68431830716241 38.143974519448875 88.408639155652 H 0.0 **** 0.06
17851 C 61.67976643982769 93.89828396604852 61.366246209738875 C 0.0 **** -0.24
17852 H 61.247483590969225 94.58597365610757 60.63836705240445 H 0.0 **** 0.06
17853 H 62.04573696569261 94.46293581914423 62.22508236512829 H 0.0 **** 0.06
17854 H 62.506691003357076 93.35754507482741 60.90751569132516 H 0.0 **** 0.06
17855 H 60.91814045044116 93.1911858920526 61.69319369024572 H 0.0 **** 0.06
17856 C 61.88632801967802 6.487441917638412 31.32857284805727 C 0.0 **** -0.24
17857 H 61.33641010370678 7.350584103346371 30.953605645968942 H 0.0 **** 0.06
17858 H 62.94060988035284 6.588499361815185 31.069299337464287 H 0.0 **** 0.06
17859 H 61.48672395922523 5.578661768749271 30.87887876071678 H 0.0 **** 0.06
17860 H 61.78156813542722 6.43202243664266 32.41250764807856 H 0.0 **** 0.06
17861 C 7.690457333992761 14.467647748677113 31.082757205304006 C 0.0 **** -0.24
17862 H 8.367418498369489 15.237170365015384 31.45611518051834 H 0.0 **** 0.06
17863 H 7.6920716009076155 14.4809267504179 29.992675265002333 H 0.0 **** 0.06
17864 H 6.681727714512169 14.664001559317981 31.447727557090587 H 0.0 **** 0.06
17865 H 8.021594895821115 13.491154387912584 31.43590614620331 H 0.0 **** 0.06
17866 C 18.395333733303687 88.67866396481332 57.96782667799688 C 0.0 **** -0.24
17867 H 19.02915580428646 89.4006902770592 58.48310152400941 H 0.0 **** 0.06
17868 H 17.744560602908763 88.18638575473608 58.690655885659325 H 0.0 **** 0.06
17869 H 19.020011597243013 87.93419410325066 57.47485232739821 H 0.0 **** 0.06
17870 H 17.788553850192528 89.19414625175318 57.224286051738275 H 0.0 **** 0.06
17871 C 72.39123112116516 40.911265447915184 51.409738632330786 C 0.0 **** -0.24
17872 H 71.68181625900678 40.80260937402721 50.58960392266302 H 0.0 **** 0.06
17873 H 72.8818114511846 41.88268231679183 51.33785790133186 H 0.0 **** 0.06
17874 H 73.13901399985616 40.12083923412362 51.349608019033894 H 0.0 **** 0.06
17875 H 71.86256856450689 40.84035369120278 52.35925896613014 H 0.0 **** 0.06
17876 C 44.958902733437796 6.543218053018961 93.67293553289956 C 0.0 **** -0.24
17877 H 45.754977382185146 6.768400849019429 92.96358273710482 H 0.0 **** 0.06
17878 H 45.104118083773145 5.541479755744319 94.07610098710877 H 0.0 **** 0.06
17879 H 43.99502858925063 6.594581104847464 93.16524852192049 H 0.0 **** 0.06
17880 H 44.98038540662695 7.269661926897697 94.48501516050457 H 0.0 **** 0.06
17881 C 103.28336185525308 65.98205068964546 20.80365013710309 C 0.0 **** -0.24
17882 H 102.74238976398055 65.30289838138435 20.144567514546566 H 0.0 **** 0.06
17883 H 102.59023871950728 66.41084397530267 21.52916122304788 H 0.0 **** 0.06
17884 H 103.73153751682577 66.78064470687357 20.213716545300997 H 0.0 **** 0.06
17885 H 104.06505665909737 65.43282438923765 21.327567312401357 H 0.0 **** 0.06
17886 C 113.02732673475592 61.61688355962252 11.63787024112196 C 0.0 **** -0.24
17887 H 113.6945775197724 62.4056280733663 11.985706480015551 H 0.0 **** 0.06
17888 H 112.10509175137811 62.0601035660537 11.262492828086977 H 0.0 **** 0.06
17889 H 112.79784116738355 60.94543600266786 12.465853430136178 H 0.0 **** 0.06
17890 H 113.51313447944422 61.05624432217985 10.83921572328154 H 0.0 **** 0.06
17891 C 53.3193820963973 70.6509699696677 29.818892208359863 C 0.0 **** -0.24
17892 H 53.56131577590448 69.62266703660566 29.552874075115355 H 0.0 **** 0.06
17893 H 54.231345708992414 71.17666146658541 30.103933328754046 H 0.0 **** 0.06
17894 H 52.620303173124015 70.65477819854414 30.655210158340495 H 0.0 **** 0.06
17895 H 52.86484739169248 71.1510377044325 28.962985039299852 H 0.0 **** 0.06
17896 C 103.28400099540133 78.85236539462718 12.007933345953575 C 0.0 **** -0.24
17897 H 103.16231708255395 78.76178425881432 10.92860594928952 H 0.0 **** 0.06
17898 H 102.65442096060781 79.66211933184508 12.377982189483959 H 0.0 **** 0.06
17899 H 104.32699699159805 79.0691988662056 12.23892502983233 H 0.0 **** 0.06
17900 H 102.99241071244631 77.91776094464024 12.486342315677632 H 0.0 **** 0.06
17901 C 79.22280860516872 49.74790910285941 114.69430864142731 C 0.0 **** -0.24
17902 H 79.33901599968924 48.86149722436687 114.0698677417491 H 0.0 **** 0.06
17903 H 78.50870690449561 49.537747947115975 115.49199325017018 H 0.0 **** 0.06
17904 H 78.85591894073644 50.57534787094829 114.08610006320282 H 0.0 **** 0.06
17905 H 80.1850937060036 50.01488868367841 115.12961056635599 H 0.0 **** 0.06
17906 C 94.7726445299997 110.67910725671717 98.3152071181566 C 0.0 **** -0.24
17907 H 95.35714034125635 109.77892464806686 98.11736464901452 H 0.0 **** 0.06
17908 H 94.27185782661797 110.58111369687694 99.27795705825918 H 0.0 **** 0.06
17909 H 94.02861898595478 110.80814495832558 97.52962849497538 H 0.0 **** 0.06
17910 H 95.4349407370376 111.54425431457375 98.33441184197267 H 0.0 **** 0.06
17911 C 102.00965974810143 113.08359000526917 90.81414481156597 C 0.0 **** -0.24
17912 H 101.36853345861618 113.55143912411711 91.56069875444825 H 0.0 **** 0.06
17913 H 101.69798759641 113.39914123037238 89.81801705953472 H 0.0 **** 0.06
17914 H 101.9291953795821 111.99969042336144 90.89307962065129 H 0.0 **** 0.06
17915 H 103.04365279706658 113.38430811658756 90.98359261106444 H 0.0 **** 0.06
17916 C 43.9456131976155 99.5219401493119 81.28818074369154 C 0.0 **** -0.24
17917 H 43.45606019662938 99.92889359011974 80.4041133033523 H 0.0 **** 0.06
17918 H 44.86540536147376 99.0154450022237 80.9932389232154 H 0.0 **** 0.06
17919 H 43.27968700332164 98.81003451409325 81.7769570576652 H 0.0 **** 0.06
17920 H 44.18197988201487 100.33179851370774 81.97829795729636 H 0.0 **** 0.06
17921 C 54.365177225423565 99.0198401670728 77.78555315370295 C 0.0 **** -0.24
17922 H 54.39554271479089 98.35497006618402 76.92279525258084 H 0.0 **** 0.06
17923 H 54.85290554959661 98.5388033597132 78.63340822838143 H 0.0 **** 0.06
17924 H 53.328555011857226 99.23987036645383 78.0390222900906 H 0.0 **** 0.06
17925 H 54.884831233052466 99.94858279026613 77.54626565639 H 0.0 **** 0.06
17926 C 1.1437074165212664 33.65906230403934 34.155583487511024 C 0.0 **** -0.24
17927 H 1.8905333979636794 34.34035225641071 33.74967410504294 H 0.0 **** 0.06
17928 H 0.9136421284395624 33.943345049014965 35.18254349394181 H 0.0 **** 0.06
17929 H 1.5330984748040066 32.64136231752761 34.138735104146406 H 0.0 **** 0.06
17930 H 0.23761593029095707 33.71185234253943 33.55262914319181 H 0.0 **** 0.06
17931 C 42.14851607480372 1.500046212310508 15.763583554708703 C 0.0 **** -0.24
17932 H 43.20743112217504 1.6669508044174108 15.961917505423315 H 0.0 **** 0.06
17933 H 41.777337955534264 0.7114061554797217 16.417971215021282 H 0.0 **** 0.06
17934 H 42.016508747865615 1.202097972427282 14.724048854063597 H 0.0 **** 0.06
17935 H 41.59451503458651 2.420022109952157 15.951359415188819 H 0.0 **** 0.06
17936 C 63.29016291803822 53.96416550986237 76.12985989541323 C 0.0 **** -0.24
17937 H 62.93576360831436 54.637192632639426 75.35013104084616 H 0.0 **** 0.06
17938 H 63.58273980712934 53.01294154864593 75.6842049315463 H 0.0 **** 0.06
17939 H 62.49324890901774 53.79666544958047 76.85504428463062 H 0.0 **** 0.06
17940 H 64.14957684129084 54.4095826013571 76.63162868148079 H 0.0 **** 0.06
17941 C 8.924883920719878 109.61844002049816 70.22821739620952 C 0.0 **** -0.24
17942 H 8.264037420502916 108.85360055308297 69.81955606891381 H 0.0 **** 0.06
17943 H 9.24472674780867 109.32512905050504 71.22831030115088 H 0.0 **** 0.06
17944 H 8.392679843776932 110.56816402999692 70.27947815828088 H 0.0 **** 0.06
17945 H 9.79833264387662 109.72530946717336 69.58364940125188 H 0.0 **** 0.06
17946 C 58.67007359052741 48.175198248641394 96.97167168937669 C 0.0 **** -0.24
17947 H 58.083714057860334 48.93258420480551 96.45253731318955 H 0.0 **** 0.06
17948 H 58.534479725951655 47.211177479329116 96.48045293323601 H 0.0 **** 0.06
17949 H 58.33780175815468 48.1062574631579 98.00809786707003 H 0.0 **** 0.06
17950 H 59.72385453132324 48.45160786795111 96.94527142265612 H 0.0 **** 0.06
17951 C 17.664522013116454 78.84064450799201 73.43105371792923 C 0.0 **** -0.24
17952 H 16.65554364464103 78.42809593975835 73.4193960976541 H 0.0 **** 0.06
17953 H 18.02698412618082 78.94147515229595 72.40773265997153 H 0.0 **** 0.06
17954 H 18.322997357587894 78.17148809296383 73.9858487495135 H 0.0 **** 0.06
17955 H 17.651357625616214 79.81886839447147 73.911960461452 H 0.0 **** 0.06
17956 C 64.88788512943948 91.27172014514122 55.64498692786404 C 0.0 **** -0.24
17957 H 64.92450160922206 90.25846597901182 56.04475782165228 H 0.0 **** 0.06
17958 H 63.98297936272543 91.7682450722595 55.99708091508748 H 0.0 **** 0.06
17959 H 64.88117231858308 91.23228938516525 54.55579286874101 H 0.0 **** 0.06
17960 H 65.76292342871143 91.82764802362232 55.98371071102566 H 0.0 **** 0.06
17961 C 96.25967264459533 34.867098906061926 50.298203731385016 C 0.0 **** -0.24
17962 H 95.54068741041449 34.11593848779657 50.626194357091094 H 0.0 **** 0.06
17963 H 97.24717465538623 34.41307198135057 50.214109142944494 H 0.0 **** 0.06
17964 H 96.29258903478784 35.67907865686884 51.02458720132567 H 0.0 **** 0.06
17965 H 95.95600623051601 35.26033519135342 49.32781437147668 H 0.0 **** 0.06
17966 C 56.628978823517514 94.53492263641135 8.731811554847042 C 0.0 **** -0.24
17967 H 57.04603477317562 95.32507526299844 8.10649180954799 H 0.0 **** 0.06
17968 H 55.87723794106546 93.98440431287776 8.166169638868894 H 0.0 **** 0.06
17969 H 56.16782024359429 94.97784151568908 9.615065331887038 H 0.0 **** 0.06
17970 H 57.42463360819761 93.85683775574995 9.03810525632332 H 0.0 **** 0.06
17971 C 36.16254181181981 47.974523496075676 9.988563801954353 C 0.0 **** -0.24
17972 H 35.684928207926504 47.185099701265756 9.407557850625452 H 0.0 **** 0.06
17973 H 35.77433168339481 48.94336155351425 9.673885737325719 H 0.0 **** 0.06
17974 H 37.23976727006373 47.94315016288897 9.8260074598975 H 0.0 **** 0.06
17975 H 35.9503142015419 47.82443006166727 11.047128848606118 H 0.0 **** 0.06
17976 C 54.539893190976215 67.65434379461271 12.248525761309452 C 0.0 **** -0.24
17977 H 53.74178260588712 67.55698243971779 11.511742290196253 H 0.0 **** 0.06
17978 H 55.00168408390925 68.63727627460878 12.154581775360327 H 0.0 **** 0.06
17979 H 55.28982329285311 66.8819505707234 12.07564676327803 H 0.0 **** 0.06
17980 H 54.125060261589525 67.54095944627471 13.250562804825904 H 0.0 **** 0.06
17981 C 100.5717757837305 37.728584676627506 67.36918060754151 C 0.0 **** -0.24
17982 H 101.30248374518767 37.3617504917155 66.64842260115019 H 0.0 **** 0.06
17983 H 100.72917315728255 37.23598080196015 68.32811125143303 H 0.0 **** 0.06
17984 H 99.56584526600466 37.51194212377095 67.0094135147865 H 0.0 **** 0.06
17985 H 100.68990383201078 38.80626036406724 67.4896070578169 H 0.0 **** 0.06
17986 C 91.01057601033531 93.81344873279585 81.68902257473826 C 0.0 **** -0.24
17987 H 91.58055092973893 94.52539043253013 82.28602522460716 H 0.0 **** 0.06
17988 H 91.59188938599334 93.52615050608789 80.81299801461012 H 0.0 **** 0.06
17989 H 90.07451167078557 94.2725690552823 81.37031163478963 H 0.0 **** 0.06
17990 H 90.79554938645921 92.92797608970127 82.2884993404659 H 0.0 **** 0.06
17991 C 106.27699436488481 71.02614324180762 42.16548466168271 C 0.0 **** -0.24
17992 H 106.30541353694528 70.90653321779176 43.24834491309451 H 0.0 **** 0.06
17993 H 107.16478696069517 70.57135351424245 41.72606667801193 H 0.0 **** 0.06
17994 H 106.2515360728864 72.0873067435804 41.91789942988996 H 0.0 **** 0.06
17995 H 105.38468994891768 70.53998069091135 41.76914459901076 H 0.0 **** 0.06
17996 C 91.60363997512997 62.14747272326633 30.747996108800706 C 0.0 **** -0.24
17997 H 92.38352844800733 61.5010047996185 30.345939234342097 H 0.0 **** 0.06
17998 H 91.20870909592958 61.71316975502509 31.666936879446943 H 0.0 **** 0.06
17999 H 90.80020448187705 62.24380932733382 30.017432460414426 H 0.0 **** 0.06
18000 H 92.0211394703773 63.131197210910955 30.9609416795481 H 0.0 **** 0.06
18001 C 16.332317981408323 3.2447714918759605 7.9152301485931105 C 0.0 **** -0.24
18002 H 15.392590422183616 3.679312077928424 8.255578687040924 H 0.0 **** 0.06
18003 H 16.285396829189523 2.1594951716716935 8.006959574788084 H 0.0 **** 0.06
18004 H 17.15104807439576 3.625634704720154 8.52658345103896 H 0.0 **** 0.06
18005 H 16.500968423450416 3.515322691158195 6.873214508938418 H 0.0 **** 0.06
18006 C 102.38434360515011 12.56200090555869 104.85604320010513 C 0.0 **** -0.24
18007 H 103.23055163792603 13.093254355005541 104.42166176825711 H 0.0 **** 0.06
18008 H 102.70727823624954 12.039427103748636 105.75646665689493 H 0.0 **** 0.06
18009 H 102.00016499495923 11.840280722591714 104.13488693967938 H 0.0 **** 0.06
18010 H 101.59974328669587 13.273596654070545 105.1102740000696 H 0.0 **** 0.06
18011 C 60.109564766612536 85.96627150924628 37.03541231816061 C 0.0 **** -0.24
18012 H 60.179914842639405 85.15016170993549 37.755337510912796 H 0.0 **** 0.06
18013 H 60.252912824567275 86.9174610259085 37.54970745606042 H 0.0 **** 0.06
18014 H 59.12541547263521 85.95143123754042 36.566400032583005 H 0.0 **** 0.06
18015 H 60.878126764822326 85.84576982016642 36.27272674503803 H 0.0 **** 0.06
18016 C 21.128099717696053 71.98176805211341 55.16432025101739 C 0.0 **** -0.24
18017 H 21.754046620629495 71.22907875806948 55.642740365800734 H 0.0 **** 0.06
18018 H 21.47490278691696 72.97588668146625 55.447838121599005 H 0.0 **** 0.06
18019 H 20.093690465581147 71.85246853768086 55.485181246017255 H 0.0 **** 0.06
18020 H 21.188786389973842 71.86960699195498 54.081751738144675 H 0.0 **** 0.06
18021 C 70.29531481110354 71.61421288253942 114.28825041809239 C 0.0 **** -0.24
18022 H 70.73453390888386 72.01283768872933 115.20301237112255 H 0.0 **** 0.06
18023 H 69.91864235858532 70.6084257337762 114.47525750202712 H 0.0 **** 0.06
18024 H 71.05294059919544 71.57912164308588 113.50637048050018 H 0.0 **** 0.06
18025 H 69.47441323860187 72.25691087586434 113.97065722722726 H 0.0 **** 0.06
18026 C 4.741974609232244 46.70761050045351 75.1306844881589 C 0.0 **** -0.24
18027 H 3.972469957133015 47.151253577322734 74.49751463350799 H 0.0 **** 0.06
18028 H 5.082303127044796 47.44516725030388 75.85795069148345 H 0.0 **** 0.06
18029 H 5.581572841915516 46.3908289183305 74.51298576018937 H 0.0 **** 0.06
18030 H 4.328892505678127 45.84493448011162 75.65291220038571 H 0.0 **** 0.06
18031 C 99.35916703425438 62.06228103165047 76.9196011436182 C 0.0 **** -0.24
18032 H 99.90099355277657 61.42391718036467 77.61768078679478 H 0.0 **** 0.06
18033 H 99.3594742818947 63.08828740388846 77.29041039710559 H 0.0 **** 0.06
18034 H 98.33209857679543 61.71029012740655 76.82694425770302 H 0.0 **** 0.06
18035 H 99.84481988466635 62.028452209388874 75.94444707173574 H 0.0 **** 0.06
18036 C 73.93437996665736 55.82134523694638 31.778508176272084 C 0.0 **** -0.24
18037 H 72.86942959857524 55.83974144217216 32.012268532386486 H 0.0 **** 0.06
18038 H 74.16977638966725 54.91120177752244 31.22726055904033 H 0.0 **** 0.06
18039 H 74.50920958763771 55.84391754158726 32.70488553433134 H 0.0 **** 0.06
18040 H 74.18857021863448 56.69139814968578 31.17277158105165 H 0.0 **** 0.06
18041 C 60.620884796883985 81.27145089815735 22.968390400521983 C 0.0 **** -0.24
18042 H 60.422926261688815 82.3419023861461 22.91424635481397 H 0.0 **** 0.06
18043 H 61.316828795037964 80.9908287660244 22.177279300647783 H 0.0 **** 0.06
18044 H 59.6881079009234 80.72195966256561 22.842854828916757 H 0.0 **** 0.06
18045 H 61.05612668603618 81.0308428500714 23.93786797569473 H 0.0 **** 0.06
18046 C 63.445219874801126 64.48459118338508 73.97499149052408 C 0.0 **** -0.24
18047 H 63.43246518670088 64.7530898050087 72.9183461388256 H 0.0 **** 0.06
18048 H 64.47522539213168 64.32474498249556 74.29542781733687 H 0.0 **** 0.06
18049 H 62.871214033034676 63.57080689589077 74.1255008550371 H 0.0 **** 0.06
18050 H 63.003853300765854 65.2922320525903 74.5596062107121 H 0.0 **** 0.06
18051 C 48.3719784901283 51.48352791055902 86.05544678900344 C 0.0 **** -0.24
18052 H 47.475696599954176 51.38363013337866 86.66785578257662 H 0.0 **** 0.06
18053 H 48.792973957622934 50.496131172460494 85.86584706837345 H 0.0 **** 0.06
18054 H 49.10359683323165 52.09606827620074 86.58126081428009 H 0.0 **** 0.06
18055 H 48.11391763534664 51.9577177313434 85.10920945614197 H 0.0 **** 0.06
18056 C 15.858512844247286 87.32511749371582 34.10237219498276 C 0.0 **** -0.24
18057 H 15.434984360503705 88.3235928894074 33.98819630608557 H 0.0 **** 0.06
18058 H 16.06948168185366 86.90700654566432 33.11741482721828 H 0.0 **** 0.06
18059 H 15.146972651175332 86.68551725367858 34.6237344387273 H 0.0 **** 0.06
18060 H 16.78200856799836 87.38594767638085 34.67712764053482 H 0.0 **** 0.06
18061 C 83.22748801572368 4.931635797463883 76.10793275569387 C 0.0 **** -0.24
18062 H 82.95610142371598 3.995700357361031 76.59562906284 H 0.0 **** 0.06
18063 H 84.0545482656392 4.755295220076789 75.41946782912744 H 0.0 **** 0.06
18064 H 83.53084514744896 5.65898587833189 76.86191282632193 H 0.0 **** 0.06
18065 H 82.37010276621044 5.3164920797083255 75.55585601741507 H 0.0 **** 0.06
18066 C 39.27900147111231 84.02489878818048 48.04948149187442 C 0.0 **** -0.24
18067 H 39.43558111046474 84.13325153415173 49.1229669752517 H 0.0 **** 0.06
18068 H 40.24388142537728 84.02773674422667 47.5402985216584 H 0.0 **** 0.06
18069 H 38.67372434547593 84.85484965123163 47.685433833061865 H 0.0 **** 0.06
18070 H 38.765313000057915 83.08496600131079 47.84979169459757 H 0.0 **** 0.06
18071 C 82.08106731953413 18.788976146727805 75.15471785538594 C 0.0 **** -0.24
18072 H 81.23793453656413 18.77666070298389 75.84450907182128 H 0.0 **** 0.06
18073 H 82.83352522745503 19.490404209197607 75.51330292029667 H 0.0 **** 0.06
18074 H 81.73702530608384 19.09686097449523 74.16752812836162 H 0.0 **** 0.06
18075 H 82.51399428022307 17.790724758313644 75.09305793819891 H 0.0 **** 0.06
18076 C 88.67039719818855 77.87401075286914 41.46505676382719 C 0.0 **** -0.24
18077 H 88.9661770409849 78.03530073778751 40.42864644278501 H 0.0 **** 0.06
18078 H 89.46382356398321 77.3423596894111 41.990736634580514 H 0.0 **** 0.06
18079 H 87.75478475888913 77.28285273124038 41.49358111217191 H 0.0 **** 0.06
18080 H 88.49675327460764 78.83645559057743 41.94688796389636 H 0.0 **** 0.06
18081 C 17.564005584315794 4.266732936180489 21.93063295132312 C 0.0 **** -0.24
18082 H 17.459379677716328 3.187918053310625 21.8165785568508 H 0.0 **** 0.06
18083 H 17.58567466746254 4.518601991817036 22.990883384070628 H 0.0 **** 0.06
18084 H 16.719476467672024 4.765048395735391 21.454543848246203 H 0.0 **** 0.06
18085 H 18.491503400437637 4.592985388279118 21.45993803855191 H 0.0 **** 0.06
18086 C 16.13839631886475 96.43138988230706 66.36882541015609 C 0.0 **** -0.24
18087 H 15.866878713515916 95.51123164241386 66.88627933235426 H 0.0 **** 0.06
18088 H 16.062471100715925 96.27850692545897 65.29233913118514 H 0.0 **** 0.06
18089 H 17.162053013886293 96.70477979665677 66.62660348196053 H 0.0 **** 0.06
18090 H 15.462363083696516 97.2307564621319 66.67177866114561 H 0.0 **** 0.06
18091 C 19.486035342518548 5.4926962970074555 76.04326584678722 C 0.0 **** -0.24
18092 H 19.534120773506544 4.4229806414311525 76.24755430714481 H 0.0 **** 0.06
18093 H 20.231734449220966 6.010942196493531 76.64773478194991 H 0.0 **** 0.06
18094 H 18.492573882087385 5.866053118706887 76.29340303211683 H 0.0 **** 0.06
18095 H 19.68683564314449 5.670079438249772 74.98705565336184 H 0.0 **** 0.06
18096 C 83.68566573222904 10.785392604784874 113.16013975571482 C 0.0 **** -0.24
18097 H 84.64225934819552 10.263465975995572 113.15685839520246 H 0.0 **** 0.06
18098 H 82.87991635053056 10.068789874828923 112.99766491157823 H 0.0 **** 0.06
18099 H 83.67552097309083 11.531044160966403 112.36617546028795 H 0.0 **** 0.06
18100 H 83.54518997076664 11.278206505690804 114.12331663411433 H 0.0 **** 0.06
18101 C 10.971997873022303 51.705637970193536 5.608557915958727 C 0.0 **** -0.24
18102 H 11.260844124129733 51.23157013459462 6.546398554186311 H 0.0 **** 0.06
18103 H 11.28757911850721 51.081316191761324 4.7727497204852085 H 0.0 **** 0.06
18104 H 11.450164787130234 52.68313338051202 5.533626125754353 H 0.0 **** 0.06
18105 H 9.888750676266852 51.828667673978785 5.581339815049802 H 0.0 **** 0.06
18106 C 39.32382618997303 18.696493537134902 103.91560040667979 C 0.0 **** -0.24
18107 H 38.88814342021834 17.89327123675207 104.50976874127241 H 0.0 **** 0.06
18108 H 39.35962391127606 19.609455835855943 104.5110624035362 H 0.0 **** 0.06
18109 H 38.713848794330545 18.864124576415232 103.0286410527656 H 0.0 **** 0.06
18110 H 40.33391623066342 18.418902134984716 103.6151430062438 H 0.0 **** 0.06
18111 C 73.68041729933543 103.98445894073838 96.74390865267213 C 0.0 **** -0.24
18112 H 74.27411239342644 103.55546030315587 95.93664236237233 H 0.0 **** 0.06
18113 H 72.62126672749059 103.8333486324692 96.53465685910786 H 0.0 **** 0.06
18114 H 73.88706204961943 105.05210866603541 96.81884576336962 H 0.0 **** 0.06
18115 H 73.93968826370696 103.49714193357823 97.6838348513689 H 0.0 **** 0.06
18116 C 87.3147232344707 93.79405699219485 102.27313300456571 C 0.0 **** -0.24
18117 H 88.33859744961995 94.16266223078682 102.31559715097877 H 0.0 **** 0.06
18118 H 87.04670254196873 93.35666522806473 103.23544894515582 H 0.0 **** 0.06
18119 H 87.23349158270145 93.0351769233729 101.49406748093605 H 0.0 **** 0.06
18120 H 86.63956492422568 94.61934753944111 102.04767723471967 H 0.0 **** 0.06
18121 C 2.145978748997834 83.7577910315573 44.25162508271396 C 0.0 **** -0.24
18122 H 2.1162847894612753 82.76102327526633 43.81122880832319 H 0.0 **** 0.06
18123 H 1.1557074978551611 84.2095188123227 44.196858375884744 H 0.0 **** 0.06
18124 H 2.859291754851469 84.37461868770711 43.704877646179256 H 0.0 **** 0.06
18125 H 2.454697812677864 83.68436495804141 45.294965281908674 H 0.0 **** 0.06
18126 C 96.57891007516113 42.2597923334788 90.57922398561254 C 0.0 **** -0.24
18127 H 97.54397108635732 42.06802477736065 90.11022718212058 H 0.0 **** 0.06
18128 H 95.81365997775865 42.35664207792166 89.809668322623 H 0.0 **** 0.06
18129 H 96.63319943264253 43.18323503707137 91.15672191222461 H 0.0 **** 0.06
18130 H 96.32726381006631 41.431804180222656 91.24191873188215 H 0.0 **** 0.06
18131 C 12.167707763062651 96.4795305897566 98.47673929779833 C 0.0 **** -0.24
18132 H 12.537343061649551 97.37011467844901 97.9683267785544 H 0.0 **** 0.06
18133 H 12.932993599642316 95.70370808498595 98.45254041003346 H 0.0 **** 0.06
18134 H 11.26969408373759 96.12096763493481 97.97360154763709 H 0.0 **** 0.06
18135 H 11.931088985455688 96.72554902859433 99.51252793846061 H 0.0 **** 0.06
18136 C 3.947551123669058 107.34309117973845 27.617155756937905 C 0.0 **** -0.24
18137 H 3.8434499832154927 107.07009233915423 26.567630116652253 H 0.0 **** 0.06
18138 H 3.6763265833108107 106.4929740528109 28.243502865232415 H 0.0 **** 0.06
18139 H 3.2908429210084194 108.18406927047212 27.84124229594505 H 0.0 **** 0.06
18140 H 4.981433835625495 107.62736933251296 27.817248531443852 H 0.0 **** 0.06
18141 C 74.70873357893373 72.50168556312497 36.62565155642582 C 0.0 **** -0.24
18142 H 74.43439482990303 71.65709335981887 37.25844920796564 H 0.0 **** 0.06
18143 H 74.86715977267846 72.15416549655293 35.60466355012858 H 0.0 **** 0.06
18144 H 75.62598482210755 72.95398945978917 37.0023303051899 H 0.0 **** 0.06
18145 H 73.90720720933044 73.24010505834508 36.63890559686587 H 0.0 **** 0.06
18146 C 73.56275950242562 25.393486780375284 81.86933468899494 C 0.0 **** -0.24
18147 H 72.90121633872337 24.53069242120388 81.78789683770015 H 0.0 **** 0.06
18148 H 72.98597835233221 26.30797319549341 81.72990846264162 H 0.0 **** 0.06
18149 H 74.33573448291172 25.330091434285464 81.10362505229608 H 0.0 **** 0.06
18150 H 74.02735044453254 25.40289263738805 82.85552501715506 H 0.0 **** 0.06
18151 C 10.535295572038535 81.0028697322752 54.41449934349867 C 0.0 **** -0.24
18152 H 10.575129534429095 81.46861627482252 53.42982327129783 H 0.0 **** 0.06
18153 H 10.685221546983428 81.76300827008646 55.18217977562892 H 0.0 **** 0.06
18154 H 11.317903570738622 80.24887462383268 54.49090338859004 H 0.0 **** 0.06
18155 H 9.561529992889746 80.53167314464537 54.55433862036327 H 0.0 **** 0.06
18156 C 90.89141756246981 68.02050498626588 73.31782449016926 C 0.0 **** -0.24
18157 H 91.40226557237706 68.97561695686659 73.44039690013732 H 0.0 **** 0.06
18158 H 91.23932508989364 67.32291741721747 74.07953669105706 H 0.0 **** 0.06
18159 H 91.10850780676925 67.61682530184231 72.32843925600214 H 0.0 **** 0.06
18160 H 89.81604536303252 68.16754064567021 73.42295183291887 H 0.0 **** 0.06
18161 C 67.26092895752312 112.8802177939214 74.66809787829717 C 0.0 **** -0.24
18162 H 66.4879132056354 112.11285108540251 74.61167429618251 H 0.0 **** 0.06
18163 H 66.95280129488786 113.65426295724801 75.37221014410295 H 0.0 **** 0.06
18164 H 67.4064214198673 113.32183702231633 73.68297155484368 H 0.0 **** 0.06
18165 H 68.19439647610966 112.430475277578 75.00660581233643 H 0.0 **** 0.06
18166 C 17.413265952127432 34.78183626169886 29.914792950388005 C 0.0 **** -0.24
18167 H 17.25492598485755 35.59096854873354 30.628076888157835 H 0.0 **** 0.06
18168 H 17.252916130659855 33.824268865594036 30.4107054404067 H 0.0 **** 0.06
18169 H 18.43300959777571 34.828546208653734 29.533979907198272 H 0.0 **** 0.06
18170 H 16.71107880245785 34.88530990243191 29.087221202627802 H 0.0 **** 0.06
18171 C 39.877367798143354 38.78576120210994 12.823570971539809 C 0.0 **** -0.24
18172 H 39.953407160350196 39.86003479941101 12.989967411749088 H 0.0 **** 0.06
18173 H 38.96659451843601 38.40958922189188 13.289703183691305 H 0.0 **** 0.06
18174 H 40.74299398705156 38.28811935939089 13.262939335794101 H 0.0 **** 0.06
18175 H 39.84910292759818 38.58518142626815 11.753117172203467 H 0.0 **** 0.06
18176 C 100.27291613388341 96.37161186752638 59.68428106730752 C 0.0 **** -0.24
18177 H 99.2962480821737 96.23726370086843 59.22044965151258 H 0.0 **** 0.06
18178 H 101.05484073505853 96.18584943867621 58.94736598342499 H 0.0 **** 0.06
18179 H 100.38103639654791 95.6713628247546 60.512929288693584 H 0.0 **** 0.06
18180 H 100.35993140487982 97.39250816635334 60.0576276965123 H 0.0 **** 0.06
18181 C 93.90081478661693 0.5019590911383887 12.304562776278573 C 0.0 **** -0.24
18182 H 93.74290752295173 1.3214618052669636 13.005329586855908 H 0.0 **** 0.06
18183 H 92.93877166321039 0.14881364898806737 11.934359003610794 H 0.0 **** 0.06
18184 H 94.41770099575359 -0.3138256467919547 12.811373928154666 H 0.0 **** 0.06
18185 H 94.50669761055053 0.8519738774030827 11.468031676847716 H 0.0 **** 0.06
18186 C 41.176246764804034 90.5539126513574 13.936764262359958 C 0.0 **** -0.24
18187 H 42.066263555516514 89.97835285780343 13.683777008598568 H 0.0 **** 0.06
18188 H 40.28681416828343 89.96338420281324 13.715112712264784 H 0.0 **** 0.06
18189 H 41.15927098812327 91.47236943039218 13.34961985944426 H 0.0 **** 0.06
18190 H 41.19390730967302 90.80151299168148 14.997923867033961 H 0.0 **** 0.06
18191 C 43.52133933619888 58.71685894888236 49.766756726850275 C 0.0 **** -0.24
18192 H 42.78689750184361 57.967515966933604 50.06139688101294 H 0.0 **** 0.06
18193 H 44.328204658146035 58.74309201031264 50.4985057823358 H 0.0 **** 0.06
18194 H 43.042696801108946 59.69492273991946 49.71731887513725 H 0.0 **** 0.06
18195 H 43.9269164948729 58.4616608464531 48.7870615058705 H 0.0 **** 0.06
18196 C 104.57981059484776 18.602271199168285 50.22025119835354 C 0.0 **** -0.24
18197 H 104.00723549280853 18.947423076900947 51.08173918235454 H 0.0 **** 0.06
18198 H 105.53502274887315 18.199955993696193 50.55780679038874 H 0.0 **** 0.06
18199 H 104.75543919457809 19.438012984975302 49.542941952893926 H 0.0 **** 0.06
18200 H 104.02020016384293 17.824203330663664 49.7002289283115 H 0.0 **** 0.06
18201 C 41.25108192198272 47.264774256900324 70.12214869376835 C 0.0 **** -0.24
18202 H 41.92355172405222 47.69289961877077 70.86624187026861 H 0.0 **** 0.06
18203 H 41.8348383935124 46.87116263572622 69.29039945632961 H 0.0 **** 0.06
18204 H 40.57372243282242 48.03704508209714 69.758388584475 H 0.0 **** 0.06
18205 H 40.67400126810006 46.459119306671425 70.57569423429338 H 0.0 **** 0.06
18206 C 52.645318077225284 24.811481808016225 75.22290557369591 C 0.0 **** -0.24
18207 H 52.11426960753619 24.16326738990287 75.92090716318509 H 0.0 **** 0.06
18208 H 53.486589534527184 24.268442513114536 74.79053617487054 H 0.0 **** 0.06
18209 H 53.01352524323144 25.690012015073485 75.75298078309264 H 0.0 **** 0.06
18210 H 51.96674094584358 25.123786875747818 74.42938988331001 H 0.0 **** 0.06
18211 C 99.89612885099324 47.07254269227798 60.41388715635938 C 0.0 **** -0.24
18212 H 100.55450674302887 46.63946006539615 59.661112608215575 H 0.0 **** 0.06
18213 H 98.86215660493846 47.00840574541522 60.074330940443815 H 0.0 **** 0.06
18214 H 100.16388737752722 48.117938734575034 60.57143750511699 H 0.0 **** 0.06
18215 H 100.00588166715114 46.52498208017175 61.35065410889001 H 0.0 **** 0.06
18216 C 37.02937837491885 79.27316382824262 62.91664175470649 C 0.0 **** -0.24
18217 H 36.47712737261412 78.37403199091574 63.19110370183773 H 0.0 **** 0.06
18218 H 37.95075856034654 78.9915809701764 62.407046629576456 H 0.0 **** 0.06
18219 H 37.26999066215643 79.83877041458317 63.81641252022288 H 0.0 **** 0.06
18220 H 36.418289788996105 79.8865107196782 62.254025034311965 H 0.0 **** 0.06
18221 C 56.52082474753132 28.667438247687073 43.588522401469106 C 0.0 **** -0.24
18222 H 57.10583794522779 29.586387756093586 43.541004375611806 H 0.0 **** 0.06
18223 H 55.97680442611545 28.535549750985183 42.65322519190454 H 0.0 **** 0.06
18224 H 55.813037685254926 28.73043037171169 44.41541480912579 H 0.0 **** 0.06
18225 H 57.1880828611807 27.81978395803742 43.74427015841849 H 0.0 **** 0.06
18226 C 26.824282140903648 96.583189024381 87.82320475586086 C 0.0 **** -0.24
18227 H 26.03026428149026 96.34158246004989 88.53007354412682 H 0.0 **** 0.06
18228 H 27.562194594353528 97.22045874130731 88.30928602975395 H 0.0 **** 0.06
18229 H 26.399473334522526 97.1064030217425 86.9668700594648 H 0.0 **** 0.06
18230 H 27.302876529984957 95.66356791915626 87.48633386757648 H 0.0 **** 0.06
18231 C 100.03977710810778 67.17334502100638 42.68601906364995 C 0.0 **** -0.24
18232 H 100.70343047789953 66.49147042831572 43.21780925130355 H 0.0 **** 0.06
18233 H 99.86438281892907 66.79768463804118 41.67779850711753 H 0.0 **** 0.06
18234 H 100.50109247123865 68.16027809348445 42.631220343128405 H 0.0 **** 0.06
18235 H 99.09121898308024 67.24578614189286 43.21801278289388 H 0.0 **** 0.06
18236 C 48.81906376024091 16.234845441799347 34.554382354370176 C 0.0 **** -0.24
18237 H 49.72534956318259 16.786336004627557 34.30142813906164 H 0.0 **** 0.06
18238 H 49.04956852648559 15.172043881956487 34.628900531065156 H 0.0 **** 0.06
18239 H 48.069698858427785 16.391537644109434 33.77920670397549 H 0.0 **** 0.06
18240 H 48.43353066943172 16.590746746893068 35.509936678910336 H 0.0 **** 0.06
18241 C 113.95447989802912 53.721686094593124 70.67881093980054 C 0.0 **** -0.24
18242 H 113.48947845065918 53.15057914529494 69.87567706468332 H 0.0 **** 0.06
18243 H 113.84589277854533 54.786997601315576 70.47694032008599 H 0.0 **** 0.06
18244 H 115.01349038575555 53.46935267594264 70.73771949372195 H 0.0 **** 0.06
18245 H 113.46966648363724 53.47908813875358 71.62458826859921 H 0.0 **** 0.06
18246 C 63.47923656412971 92.61993967557936 4.429175966478688 C 0.0 **** -0.24
18247 H 64.4030879793745 92.26876767108774 3.969332134283574 H 0.0 **** 0.06
18248 H 62.64239726782671 92.02310471962824 4.0650199015938995 H 0.0 **** 0.06
18249 H 63.319751163218996 93.66652672305452 4.169217262754156 H 0.0 **** 0.06
18250 H 63.55220111826546 92.52156887921626 5.511486835612297 H 0.0 **** 0.06
18251 C 72.55459081168455 34.66216509389156 87.25061741193457 C 0.0 **** -0.24
18252 H 71.70042725264105 35.09046615864878 86.72637762621741 H 0.0 **** 0.06
18253 H 73.00191404730079 35.42016566938426 87.89459697432562 H 0.0 **** 0.06
18254 H 73.29183319837489 34.319687699265444 86.52408628147572 H 0.0 **** 0.06
18255 H 72.22283419553683 33.81836239223887 87.85700276564114 H 0.0 **** 0.06
18256 C 18.76511403520111 7.5258223546341245 94.71787117226714 C 0.0 **** -0.24
18257 H 18.668906158721235 7.211725336301718 95.75716692355262 H 0.0 **** 0.06
18258 H 19.46805172802546 6.869156344542597 94.2048351793146 H 0.0 **** 0.06
18259 H 19.131729444823087 8.551890736525657 94.68108261160991 H 0.0 **** 0.06
18260 H 17.792158137710448 7.4696761131881235 94.23125336599564 H 0.0 **** 0.06
18261 C 53.14736177306912 12.112356140477019 110.40860519983833 C 0.0 **** -0.24
18262 H 53.22359692776172 13.190749647383935 110.27232550623762 H 0.0 **** 0.06
18263 H 53.81890466755223 11.608958931777579 109.71355274881105 H 0.0 **** 0.06
18264 H 52.12203669484717 11.793264401413886 110.21989236118208 H 0.0 **** 0.06
18265 H 53.42453810088779 11.85544338311949 111.43126677859382 H 0.0 **** 0.06
18266 C 111.42633669165916 1.4792913216578611 105.6491854930153 C 0.0 **** -0.24
18267 H 110.48557585589056 1.9307711251714146 105.33368175551338 H 0.0 **** 0.06
18268 H 111.91408225630478 2.129303010898914 106.37573048966576 H 0.0 **** 0.06
18269 H 112.07549245195933 1.3496833492630564 104.78344875260841 H 0.0 **** 0.06
18270 H 111.22883109579571 0.5086563397913668 106.10464114715855 H 0.0 **** 0.06
18271 C 31.267197919141175 103.44888133972103 74.48882950188798 C 0.0 **** -0.24
18272 H 31.332149054486834 103.92825168009749 73.51148869957684 H 0.0 **** 0.06
18273 H 31.876496753222987 102.54477027186203 74.4904707969054 H 0.0 **** 0.06
18274 H 30.228858137377344 103.1885878604985 74.69624551644725 H 0.0 **** 0.06
18275 H 31.630611070725394 104.13434357677848 75.25359736388923 H 0.0 **** 0.06
18276 C 43.85939563320335 2.5707845141138375 75.31448746592801 C 0.0 **** -0.24
18277 H 43.591815894206945 2.916400639828785 74.31647239935171 H 0.0 **** 0.06
18278 H 43.7899253375042 3.4003734061527933 76.01774607747666 H 0.0 **** 0.06
18279 H 44.87962933655723 2.1865785396898687 75.30446041776781 H 0.0 **** 0.06
18280 H 43.17658764616368 1.7773660691036444 75.61934646749495 H 0.0 **** 0.06
18281 C 53.05985605931069 2.6751917106274163 91.52101741707966 C 0.0 **** -0.24
18282 H 53.50743011741145 2.8344530965574677 90.54014698219663 H 0.0 **** 0.06
18283 H 52.16382704381131 2.06345417613403 91.41614728019668 H 0.0 **** 0.06
18284 H 52.79389196623769 3.6371810587799587 91.95987523751351 H 0.0 **** 0.06
18285 H 53.774822950005905 2.1665088185905574 92.16779761442177 H 0.0 **** 0.06
18286 C 79.72868522593365 70.10782517997353 36.47962502541734 C 0.0 **** -0.24
18287 H 79.13448283308867 69.7542130449894 37.32259570309924 H 0.0 **** 0.06
18288 H 80.56546461779828 70.70033549693869 36.85005632763755 H 0.0 **** 0.06
18289 H 79.10736601397386 70.72272861765782 35.829436833987195 H 0.0 **** 0.06
18290 H 80.10795116107991 69.2532657919231 35.918681004179746 H 0.0 **** 0.06
18291 C 28.659136286923825 45.55472080847346 21.66392058861888 C 0.0 **** -0.24
18292 H 28.29301533129663 44.94823474806725 20.835969130462274 H 0.0 **** 0.06
18293 H 28.331657760784744 45.115710957821534 22.607116647077476 H 0.0 **** 0.06
18294 H 28.263352992440318 46.566207720676346 21.576517363049163 H 0.0 **** 0.06
18295 H 29.748441628915323 45.58655957263994 21.636612477087624 H 0.0 **** 0.06
18296 C 61.73841600445371 90.83629160333601 72.3648195256334 C 0.0 **** -0.24
18297 H 60.68925829792653 91.12854385994973 72.42097419920407 H 0.0 **** 0.06
18298 H 62.17946294304926 91.2433234587445 71.45439419872892 H 0.0 **** 0.06
18299 H 61.81216538587867 89.7484815524952 72.35107453256208 H 0.0 **** 0.06
18300 H 62.270876335287 91.22542399862198 73.23269943210623 H 0.0 **** 0.06
18301 C 67.80321360318197 111.2380144472377 69.12177419436394 C 0.0 **** -0.24
18302 H 68.54967193416536 110.5149934477682 68.79272684838081 H 0.0 **** 0.06
18303 H 68.30301956648958 112.10581392398088 69.55218518773482 H 0.0 **** 0.06
18304 H 67.15893017304683 110.77984259489067 69.87213941722693 H 0.0 **** 0.06
18305 H 67.20108781767937 111.55208275109345 68.26881098920468 H 0.0 **** 0.06
18306 C 99.36249667588874 44.76392065824442 83.12556697809799 C 0.0 **** -0.24
18307 H 99.12265868854286 44.96723111398612 82.08183705145706 H 0.0 **** 0.06
18308 H 100.18161082383375 45.409180008190305 83.4420221898717 H 0.0 **** 0.06
18309 H 99.65773828076743 43.720273888081216 83.23363808787116 H 0.0 **** 0.06
18310 H 98.48595644619576 44.959581728158284 83.74351806552386 H 0.0 **** 0.06
18311 C 42.92243640197475 64.50442461854408 43.98385314066155 C 0.0 **** -0.24
18312 H 42.87390361589502 64.14038175375487 42.95759200676436 H 0.0 **** 0.06
18313 H 42.42599596535868 65.47303101617536 44.049656966335604 H 0.0 **** 0.06
18314 H 43.96595007643853 64.6103732866485 44.28265528333215 H 0.0 **** 0.06
18315 H 42.42525649227258 63.79534051241578 44.64517709944181 H 0.0 **** 0.06
18316 C 96.83666148031108 8.56510150757888 104.64176715026743 C 0.0 **** -0.24
18317 H 96.4905897456681 9.341951123414276 103.95946837244041 H 0.0 **** 0.06
18318 H 96.28127656122956 8.628908265941973 105.57757688121204 H 0.0 **** 0.06
18319 H 97.89973369906369 8.703113493166796 104.83932400066998 H 0.0 **** 0.06
18320 H 96.67580152745893 7.586815920746085 104.18840089590425 H 0.0 **** 0.06
18321 C 34.79182967334461 100.79590034691074 11.780608059656856 C 0.0 **** -0.24
18322 H 34.19068916876752 99.96431181260914 11.412171920150058 H 0.0 **** 0.06
18323 H 34.38527668665962 101.73367604138116 11.402117687116345 H 0.0 **** 0.06
18324 H 35.81981359515932 100.67992720996813 11.436794360788241 H 0.0 **** 0.06
18325 H 34.77249473283854 100.80389107785095 12.870418531104747 H 0.0 **** 0.06
18326 C 56.51277860518047 90.91247794898311 18.980488414601695 C 0.0 **** -0.24
18327 H 55.70531185890965 90.70180079939867 18.2804040942288 H 0.0 **** 0.06
18328 H 56.165936210817165 91.62405443032102 19.731429795921542 H 0.0 **** 0.06
18329 H 57.36024218176186 91.33664595934783 18.441730997172726 H 0.0 **** 0.06
18330 H 56.819240873378874 89.98851815169068 19.47029316417735 H 0.0 **** 0.06
18331 C 89.42094743847707 115.47250831816693 52.76912717043277 C 0.0 **** -0.24
18332 H 89.99746807607164 114.56044844263378 52.92056111145894 H 0.0 **** 0.06
18333 H 88.42396230453906 115.34617365091835 53.19235619032301 H 0.0 **** 0.06
18334 H 89.3390219495524 115.67896621168019 51.701395003769676 H 0.0 **** 0.06
18335 H 89.92246726636523 116.30551421737808 53.262512041220816 H 0.0 **** 0.06
18336 C 8.283930331088811 98.46728518479264 52.44979674373645 C 0.0 **** -0.24
18337 H 7.986672085536782 97.42042490367925 52.38210121532196 H 0.0 **** 0.06
18338 H 9.299673362846477 98.58116775571935 52.071593905274234 H 0.0 **** 0.06
18339 H 8.245420466094856 98.78745008502335 53.491207808178046 H 0.0 **** 0.06
18340 H 7.602839655328808 99.07647618981315 51.85590841911343 H 0.0 **** 0.06
18341 C 50.527101458602914 52.51744357341781 110.69155670397951 C 0.0 **** -0.24
18342 H 51.02355194361891 51.77968829875027 111.32265628220847 H 0.0 **** 0.06
18343 H 51.21915632868311 52.86174783222086 109.92330208118752 H 0.0 **** 0.06
18344 H 50.210114265319596 53.363087870639134 111.30162914055066 H 0.0 **** 0.06
18345 H 49.65582511552086 52.06357879858916 110.22010488953175 H 0.0 **** 0.06
18346 C 72.38075700147795 77.97209724771199 47.78094371579155 C 0.0 **** -0.24
18347 H 72.58446182859598 78.96228977014263 48.189747730744045 H 0.0 **** 0.06
18348 H 71.88461092423995 77.36282002613208 48.537148684892855 H 0.0 **** 0.06
18349 H 73.31924908374856 77.4997875571742 47.49155005160344 H 0.0 **** 0.06
18350 H 71.73576005225834 78.06574896821463 46.90812027422271 H 0.0 **** 0.06
18351 C 93.57678107294575 57.70494249389748 97.59877045464913 C 0.0 **** -0.24
18352 H 94.07687421080914 57.124829687471106 96.82342309926446 H 0.0 **** 0.06
18353 H 94.06523075798584 57.52778250448097 98.55705788948165 H 0.0 **** 0.06
18354 H 92.53163964018795 57.40245043521537 97.66149584364433 H 0.0 **** 0.06
18355 H 93.63460917688175 58.765189705351816 97.35130055820662 H 0.0 **** 0.06
18356 C 63.56756827391541 31.10543412860516 33.835808627395465 C 0.0 **** -0.24
18357 H 63.368944492581576 31.4986351385908 32.83799140762903 H 0.0 **** 0.06
18358 H 63.951691676123986 31.903906002476262 34.470668797557664 H 0.0 **** 0.06
18359 H 64.30606617945209 30.30561159700816 33.770261782350985 H 0.0 **** 0.06
18360 H 62.64422372251494 30.71407960100875 34.262232121637794 H 0.0 **** 0.06
18361 C 5.17559504661935 1.4408147425633047 35.57890533142705 C 0.0 **** -0.24
18362 H 4.790024281110931 2.39504913099978 35.938281856248864 H 0.0 **** 0.06
18363 H 6.241760229055103 1.373669785818663 35.797210064581094 H 0.0 **** 0.06
18364 H 5.020455587415597 1.3689662276039485 34.501780376453354 H 0.0 **** 0.06
18365 H 4.650010226370341 0.626682502600886 36.07702458811562 H 0.0 **** 0.06
18366 C 86.2705845564364 115.17853432201244 79.27116540864951 C 0.0 **** -0.24
18367 H 86.40370572159671 115.70578501867672 80.2164981989265 H 0.0 **** 0.06
18368 H 85.21377696696948 115.17650389022003 79.00345815492946 H 0.0 **** 0.06
18369 H 86.62140629070092 114.15151239430821 79.37568173784827 H 0.0 **** 0.06
18370 H 86.84269437628382 115.68107733426393 78.49164671405151 H 0.0 **** 0.06
18371 C 113.49523585283687 92.06813834359076 13.886037562957767 C 0.0 **** -0.24
18372 H 113.7450368142695 91.02192739583532 13.70872511734325 H 0.0 **** 0.06
18373 H 114.40112966713811 92.67192638694866 13.832279312162768 H 0.0 **** 0.06
18374 H 113.04625710111253 92.17244654497756 14.873226182859582 H 0.0 **** 0.06
18375 H 112.78794400595758 92.40583833154972 13.127799091480085 H 0.0 **** 0.06
18376 C 8.136026746563033 110.53348992288562 97.78099717435127 C 0.0 **** -0.24
18377 H 7.293483391698629 111.2185353659099 97.68955343395169 H 0.0 **** 0.06
18378 H 9.048634791330642 111.03485269888336 97.45947664832187 H 0.0 **** 0.06
18379 H 7.961536004226176 109.6576750848021 97.15543826800925 H 0.0 **** 0.06
18380 H 8.239448742061583 110.22230728769124 98.82080285235752 H 0.0 **** 0.06
18381 C 12.178518712113174 25.13314154792363 44.450226628958006 C 0.0 **** -0.24
18382 H 12.659553550645228 26.10772526035791 44.540480143254285 H 0.0 **** 0.06
18383 H 11.911540822693013 24.768180429990792 45.441804523140576 H 0.0 **** 0.06
18384 H 12.866044871764245 24.432257609410755 43.97695500706848 H 0.0 **** 0.06
18385 H 11.278920612738574 25.22700282067666 43.842215234335015 H 0.0 **** 0.06
18386 C 9.059165273274488 45.879769106714605 56.9615780568635 C 0.0 **** -0.24
18387 H 8.035651088739073 46.206779840691695 57.14590187579732 H 0.0 **** 0.06
18388 H 9.070162787081884 45.167709213534124 56.13668637392962 H 0.0 **** 0.06
18389 H 9.455219301261394 45.403862040930846 57.859205641918706 H 0.0 **** 0.06
18390 H 9.674442402740027 46.74244960373892 56.707279155715256 H 0.0 **** 0.06
18391 C 71.09104461407549 63.55538498862563 14.51128043491974 C 0.0 **** -0.24
18392 H 71.35757079465287 62.50593278094101 14.381713950507674 H 0.0 **** 0.06
18393 H 71.09435556483334 64.05239175400851 13.540667265548052 H 0.0 **** 0.06
18394 H 71.81409184875628 64.03576299130407 15.169103452240734 H 0.0 **** 0.06
18395 H 70.09628541632043 63.62491018892689 14.951631374185354 H 0.0 **** 0.06
18396 C 26.546054643581726 102.73789563309035 13.759840079503647 C 0.0 **** -0.24
18397 H 25.97936360268612 103.4818958693413 14.320077075483994 H 0.0 **** 0.06
18398 H 26.120505985523394 102.63403610884377 12.761036709626723 H 0.0 **** 0.06
18399 H 26.498836067081726 101.78000752527383 14.276966061896843 H 0.0 **** 0.06
18400 H 27.584896826734763 103.0572295077212 13.68095846818008 H 0.0 **** 0.06
18401 C 106.44716296324316 74.82777218098987 24.882694200265945 C 0.0 **** -0.24
18402 H 107.51350541997738 75.0225660263233 25.00162164821242 H 0.0 **** 0.06
18403 H 106.30642600884516 73.9546113446697 24.24576500016184 H 0.0 **** 0.06
18404 H 105.96853792499928 75.69281405369651 24.425111301644662 H 0.0 **** 0.06
18405 H 106.00173949311903 74.64018699795314 25.85993639816904 H 0.0 **** 0.06
18406 C 92.09412407326033 63.6140095480109 76.47532555928629 C 0.0 **** -0.24
18407 H 92.8568090299051 64.37074794236186 76.65648615100253 H 0.0 **** 0.06
18408 H 92.37238578777396 62.689827499357975 76.98200052645647 H 0.0 **** 0.06
18409 H 92.01176792113085 63.431254952513584 75.40380524238793 H 0.0 **** 0.06
18410 H 91.13629058480444 63.96504554774498 76.8581587343707 H 0.0 **** 0.06
18411 C 106.3292581922128 85.20788582673924 78.76169511827538 C 0.0 **** -0.24
18412 H 105.6075352184819 84.80115578974133 79.46961894492023 H 0.0 **** 0.06
18413 H 106.07266428321003 86.24345460927859 78.53615914800582 H 0.0 **** 0.06
18414 H 106.30949546625735 84.62037236262199 77.84468812531603 H 0.0 **** 0.06
18415 H 107.32743958264807 85.1672953127138 79.19842376704355 H 0.0 **** 0.06
18416 C 19.560561736883443 7.796438791936367 107.4154296405289 C 0.0 **** -0.24
18417 H 19.319579365361164 7.186747813015074 108.28578296874383 H 0.0 **** 0.06
18418 H 19.83044813303377 8.801229099813384 107.73949797917027 H 0.0 **** 0.06
18419 H 18.693287629793275 7.846642576588266 106.7566415178998 H 0.0 **** 0.06
18420 H 20.397603615559888 7.349156246709185 106.87923212259702 H 0.0 **** 0.06
18421 C 91.3101914275558 58.75904733043774 102.46195002165021 C 0.0 **** -0.24
18422 H 92.09956828795572 58.136754642148986 102.88242532782843 H 0.0 **** 0.06
18423 H 91.4619518126047 59.79429927098241 102.7674639494117 H 0.0 **** 0.06
18424 H 90.34193181792298 58.4111457646804 102.82382771298936 H 0.0 **** 0.06
18425 H 91.33591230724278 58.694095543044256 101.37424038689483 H 0.0 **** 0.06
18426 C 71.16554306965678 92.25509208763111 55.24785317517521 C 0.0 **** -0.24
18427 H 71.03470979159188 91.44105428152108 55.96026219544421 H 0.0 **** 0.06
18428 H 72.03148572523058 92.05134548225755 54.6171454358803 H 0.0 **** 0.06
18429 H 71.32225148021796 93.18905783314085 55.78893366877382 H 0.0 **** 0.06
18430 H 70.27485297484048 92.34047981573747 54.62619684996205 H 0.0 **** 0.06
18431 C 60.45893549718767 18.858475840111737 42.28881743399228 C 0.0 **** -0.24
18432 H 60.92261795843058 19.35881887171854 43.14062324522928 H 0.0 **** 0.06
18433 H 59.389577434664375 19.070468314465018 42.28181010873607 H 0.0 **** 0.06
18434 H 60.61656321649241 17.782910631402473 42.37021491549308 H 0.0 **** 0.06
18435 H 60.908321264489985 19.223030996358546 41.36552902875752 H 0.0 **** 0.06
18436 C 63.87523682500671 87.41885249156834 22.704026654482576 C 0.0 **** -0.24
18437 H 64.58383912099873 87.6872350561636 23.48809182069712 H 0.0 **** 0.06
18438 H 62.88774688311753 87.80395710851435 22.960880070784683 H 0.0 **** 0.06
18439 H 63.83032641878333 86.33450000402289 22.610907367220847 H 0.0 **** 0.06
18440 H 64.19948168340159 87.85239507043708 21.757505281729564 H 0.0 **** 0.06
18441 C 2.292396929521587 75.35646103541673 12.479072024555194 C 0.0 **** -0.24
18442 H 2.2026546273237386 76.30790017066398 11.954310671935175 H 0.0 **** 0.06
18443 H 1.297040998926576 74.98623461181107 12.729443061984881 H 0.0 **** 0.06
18444 H 2.868824874829187 75.4978137392575 13.392475934776343 H 0.0 **** 0.06
18445 H 2.7980071679142213 74.63467712534514 11.838051903941576 H 0.0 **** 0.06
18446 C 112.80475214760712 97.23873224716095 55.340584592067835 C 0.0 **** -0.24
18447 H 113.83332334970025 96.90077499021908 55.21929708413811 H 0.0 **** 0.06
18448 H 112.71736465419094 98.2691996979996 54.995687748290074 H 0.0 **** 0.06
18449 H 112.52503100423687 97.18231849113141 56.39287645306486 H 0.0 **** 0.06
18450 H 112.14184005782721 96.60182329650786 54.75398833707743 H 0.0 **** 0.06
18451 C 59.84092235621604 109.54385423947464 112.06389448052127 C 0.0 **** -0.24
18452 H 59.31600590912686 110.07708568428097 112.85628799673016 H 0.0 **** 0.06
18453 H 59.92031467462621 110.18553717551886 111.18575924899189 H 0.0 **** 0.06
18454 H 59.28733418652324 108.64100285281796 111.80572191283373 H 0.0 **** 0.06
18455 H 60.83868268656397 109.2719276971461 112.40820078020643 H 0.0 **** 0.06
18456 C 62.25339441390345 79.91923159623155 46.87941623377435 C 0.0 **** -0.24
18457 H 62.71715402340554 79.31090805147909 46.103698518714026 H 0.0 **** 0.06
18458 H 62.17476917889151 80.95043485603605 46.5336771412525 H 0.0 **** 0.06
18459 H 62.863932192098744 79.88413915076237 47.78164108924466 H 0.0 **** 0.06
18460 H 61.25845197654577 79.53258561883956 47.09905448798895 H 0.0 **** 0.06
18461 C 48.35887024219926 112.26528608546413 36.90417504460511 C 0.0 **** -0.24
18462 H 48.716762550180675 111.25028989080951 37.07327059847274 H 0.0 **** 0.06
18463 H 48.167247925644006 112.74735349910698 37.863634027437044 H 0.0 **** 0.06
18464 H 47.43676774414146 112.23271400315751 36.32362391673463 H 0.0 **** 0.06
18465 H 49.1134879813076 112.83023344973338 36.356638639407365 H 0.0 **** 0.06
18466 C 6.4931277644670615 50.178549242631235 68.63913261398486 C 0.0 **** -0.24
18467 H 6.01163168190115 50.4933156636877 69.56560832514299 H 0.0 **** 0.06
18468 H 6.945215224535815 51.04343732276512 68.15281775948398 H 0.0 **** 0.06
18469 H 5.748377146785799 49.73619334689523 67.97623863499601 H 0.0 **** 0.06
18470 H 7.263615797849155 49.44122765449327 68.86258858382666 H 0.0 **** 0.06
18471 C 96.28036196302571 106.01009516987311 47.451896194378946 C 0.0 **** -0.24
18472 H 97.26993931947639 106.31908498871424 47.113465155362405 H 0.0 **** 0.06
18473 H 95.52656299538295 106.66245343358821 47.00997490979046 H 0.0 **** 0.06
18474 H 96.23062558324104 106.07969450975925 48.53809080107516 H 0.0 **** 0.06
18475 H 96.0963738833513 104.9811100491002 47.144664193687106 H 0.0 **** 0.06
18476 C 95.28614668054024 29.917456514444723 12.081077931032837 C 0.0 **** -0.24
18477 H 95.86884569832438 29.73848580582819 12.984843890222152 H 0.0 **** 0.06
18478 H 95.8988322265771 29.706631227439175 11.20489379422935 H 0.0 **** 0.06
18479 H 94.9636416397712 30.958105424007897 12.05799405896866 H 0.0 **** 0.06
18480 H 94.41188211062104 29.26630999929 12.078578926602319 H 0.0 **** 0.06
18481 C 59.352793950367186 114.37419286547387 91.04695753229362 C 0.0 **** -0.24
18482 H 58.54477297443913 114.88565241959262 91.56983110090651 H 0.0 **** 0.06
18483 H 60.232263704008005 115.017132631317 91.01862137434172 H 0.0 **** 0.06
18484 H 59.038121852730455 114.14287889593595 90.02910641460129 H 0.0 **** 0.06
18485 H 59.59615556791903 113.44922102641064 91.57146384935771 H 0.0 **** 0.06
18486 C 30.420692212341137 97.0529342459509 95.42299962145466 C 0.0 **** -0.24
18487 H 30.90254271337946 96.47937763615545 94.63085917031333 H 0.0 **** 0.06
18488 H 29.37772913444968 97.22960563629152 95.1602282603854 H 0.0 **** 0.06
18489 H 30.932703602729234 98.00713252229332 95.5438238371953 H 0.0 **** 0.06
18490 H 30.471213270612793 96.49279838025973 96.35721482329865 H 0.0 **** 0.06
18491 C 110.25711985686809 64.06456859079437 19.930198240243755 C 0.0 **** -0.24
18492 H 110.69739583810889 65.04319083121698 20.122939410288268 H 0.0 **** 0.06
18493 H 110.78335672487043 63.58514865051747 19.104256425188254 H 0.0 **** 0.06
18494 H 109.20531066960972 64.18334961401233 19.6715768752654 H 0.0 **** 0.06
18495 H 110.34426385568722 63.44548256855242 20.823190953402417 H 0.0 **** 0.06
18496 C 1.4950378062727 21.30238846690392 61.06388696589664 C 0.0 **** -0.24
18497 H 2.300748284826499 20.7900404298353 61.589475832830786 H 0.0 **** 0.06
18498 H 1.5178768620294232 21.02916279050723 60.008838306953876 H 0.0 **** 0.06
18499 H 1.6239003008293285 22.380014830863388 61.164043946155275 H 0.0 **** 0.06
18500 H 0.5370719183771602 21.008467459596275 61.494673969064905 H 0.0 **** 0.06
18501 C 97.28041139348687 2.330102174988099 83.52108581744123 C 0.0 **** -0.24
18502 H 96.60146816057517 1.5380083171336025 83.8337531314197 H 0.0 **** 0.06
18503 H 97.69228933258626 2.088317854233793 82.5406137193928 H 0.0 **** 0.06
18504 H 98.09146159641136 2.420134801329027 84.24414133649383 H 0.0 **** 0.06
18505 H 96.73773066715484 3.2737573521227716 83.46471123408341 H 0.0 **** 0.06
18506 C 46.76544109579834 29.92405567585257 17.434423853692238 C 0.0 **** -0.24
18507 H 46.239146853444595 30.409995853111894 18.256555911910283 H 0.0 **** 0.06
18508 H 47.79452659548156 29.71957977155239 17.732360554714532 H 0.0 **** 0.06
18509 H 46.763250063712405 30.580871226850547 16.56410544709388 H 0.0 **** 0.06
18510 H 46.265621785264955 28.988430114346954 17.18526130880109 H 0.0 **** 0.06
18511 C 8.169679253429777 72.91687848306833 61.29180139184638 C 0.0 **** -0.24
18512 H 7.42663817591486 72.74619087967312 62.069393269180466 H 0.0 **** 0.06
18513 H 7.770820060753858 72.59282346034996 60.330053350404285 H 0.0 **** 0.06
18514 H 9.071879541924883 72.34991250998621 61.52003974349202 H 0.0 **** 0.06
18515 H 8.409706892414572 73.97881359185743 61.245518836517704 H 0.0 **** 0.06
18516 C 33.42208614018773 37.465901730613325 102.50356475249475 C 0.0 **** -0.24
18517 H 33.19335604147915 38.291789087486194 101.8310120838899 H 0.0 **** 0.06
18518 H 32.50121385195524 36.9436598329078 102.76475286865485 H 0.0 **** 0.06
18519 H 33.88864346222417 37.85476112068332 103.4089537425802 H 0.0 **** 0.06
18520 H 34.10577337102228 36.774400178016236 102.01143274796527 H 0.0 **** 0.06
18521 C 58.14753640671606 96.9310966989035 17.152614324167324 C 0.0 **** -0.24
18522 H 58.791369206618825 97.35263243816381 16.380274673738192 H 0.0 **** 0.06
18523 H 58.195972654150125 95.84332450758244 17.112289471999546 H 0.0 **** 0.06
18524 H 57.12099445855658 97.25693303248927 16.98604348690012 H 0.0 **** 0.06
18525 H 58.48415639601434 97.27411830604667 18.131062446109333 H 0.0 **** 0.06
18526 C 42.89783221136207 34.516456130044475 30.59175020836301 C 0.0 **** -0.24
18527 H 43.743553656286224 33.830175465237915 30.573377583918273 H 0.0 **** 0.06
18528 H 42.80962434694277 34.95706769902239 31.584095556782245 H 0.0 **** 0.06
18529 H 41.983836652825914 33.973265228174654 30.351516321693225 H 0.0 **** 0.06
18530 H 43.055211915581765 35.30552724041158 29.855742040693826 H 0.0 **** 0.06
18531 C 53.264785997941374 103.2809428732219 4.0243191371801 C 0.0 **** -0.24
18532 H 52.73888684146033 102.76923740737354 4.830530749528094 H 0.0 **** 0.06
18533 H 52.617261571974836 104.04644079415688 3.597186156645108 H 0.0 **** 0.06
18534 H 53.53612740132678 102.56113203902983 3.2526898825244075 H 0.0 **** 0.06
18535 H 54.167400051551056 103.747689157643 4.419147391356063 H 0.0 **** 0.06
18536 C 69.37869685176364 100.41163664314305 15.998395521267355 C 0.0 **** -0.24
18537 H 69.58424890349796 100.04661784651563 14.991314949917495 H 0.0 **** 0.06
18538 H 70.20236437614705 100.13816324242028 16.6584846893023 H 0.0 **** 0.06
18539 H 68.45436854333416 99.96295868919 16.364247824642916 H 0.0 **** 0.06
18540 H 69.27300972354955 101.49586788665755 15.976754262652918 H 0.0 **** 0.06
18541 C 1.5868217274229721 86.21527697095141 96.57147083224271 C 0.0 **** -0.24
18542 H 0.6130242405819502 86.69057989770153 96.45558679822244 H 0.0 **** 0.06
18543 H 2.2186065334428235 86.83170406599413 97.21186697079946 H 0.0 **** 0.06
18544 H 2.0572864258143397 86.10752130739894 95.59298048030774 H 0.0 **** 0.06
18545 H 1.4591001206466672 85.23199676450855 97.02345284877691 H 0.0 **** 0.06
18546 C 104.44943693492829 62.03228301802076 69.58192584074743 C 0.0 **** -0.24
18547 H 103.9230976990091 61.767450352724296 70.49948198494468 H 0.0 **** 0.06
18548 H 105.43419797949238 62.42913770872805 69.83148880844806 H 0.0 **** 0.06
18549 H 103.87979489227513 62.78741017044645 69.04116857024275 H 0.0 **** 0.06
18550 H 104.5612600153396 61.14497189736507 68.95866414763441 H 0.0 **** 0.06
18551 C 52.70510587929512 35.29146217826148 6.537776083730947 C 0.0 **** -0.24
18552 H 53.19075111319985 36.2596526307903 6.422948328288015 H 0.0 **** 0.06
18553 H 51.8853288660694 35.20883357013282 5.82365861653831 H 0.0 **** 0.06
18554 H 52.313135681568696 35.19931872571262 7.550916513181377 H 0.0 **** 0.06
18555 H 53.42883746866377 34.49734275776434 6.3552809748102135 H 0.0 **** 0.06
18556 C 54.71676628523119 81.72856977398973 65.24725704525491 C 0.0 **** -0.24
18557 H 54.578177648641315 82.75418392599623 64.90420837043212 H 0.0 **** 0.06
18558 H 54.265212198552035 81.61214030960652 66.23206189647334 H 0.0 **** 0.06
18559 H 55.78189450160255 81.50582856089476 65.30540129796731 H 0.0 **** 0.06
18560 H 54.23993814633633 81.04433723512497 64.54496554608386 H 0.0 **** 0.06
18561 C 13.841117727309893 27.998818302535767 71.66419183584969 C 0.0 **** -0.24
18562 H 13.571493179954416 28.08247257858409 72.71795330494938 H 0.0 **** 0.06
18563 H 13.71069460949252 28.965963181905522 71.17828529287978 H 0.0 **** 0.06
18564 H 13.200591449333729 27.25970188270486 71.18333266554818 H 0.0 **** 0.06
18565 H 14.882781662722664 27.68679914513308 71.5807597204766 H 0.0 **** 0.06
18566 C 5.65690492353815 10.618354550182744 54.01418514757347 C 0.0 **** -0.24
18567 H 5.210508294014659 11.21753302456176 53.22069113461359 H 0.0 **** 0.06
18568 H 5.668024979467845 9.57062152221971 53.714551413177645 H 0.0 **** 0.06
18569 H 5.0704544860800524 10.729313189835779 54.92665961903651 H 0.0 **** 0.06
18570 H 6.6773419860464855 10.956751149716126 54.195672153582905 H 0.0 **** 0.06
18571 C 70.81699636920938 20.39230881454017 91.80428399615718 C 0.0 **** -0.24
18572 H 70.76160697357646 21.228858491220826 92.49975802165721 H 0.0 **** 0.06
18573 H 71.62007627891121 19.719799286051646 92.10945325046228 H 0.0 **** 0.06
18574 H 71.017978389968 20.766696857306034 90.80001290089311 H 0.0 **** 0.06
18575 H 69.87027158522811 19.852617924145544 91.80869424240905 H 0.0 **** 0.06
18576 C 50.76557848069007 73.72091088075645 77.2989039567534 C 0.0 **** -0.24
18577 H 50.56308003789502 74.27735154561272 78.2138207281921 H 0.0 **** 0.06
18578 H 50.46408651874452 72.68134665186903 77.43189054174309 H 0.0 **** 0.06
18579 H 51.8308803870454 73.76552019803893 77.07496122065481 H 0.0 **** 0.06
18580 H 50.202282419482 74.15967261720536 76.47496568630584 H 0.0 **** 0.06
18581 C 36.79523360171439 12.944242525766622 23.237115535947908 C 0.0 **** -0.24
18582 H 35.809994795868285 13.410479962212708 23.236278402334165 H 0.0 **** 0.06
18583 H 37.06700511520938 12.670514602833858 24.25664573655746 H 0.0 **** 0.06
18584 H 37.52934668756595 13.646918568303196 22.841306262493276 H 0.0 **** 0.06
18585 H 36.77467425900395 12.050783618682786 22.61281347095246 H 0.0 **** 0.06
18586 C 5.967324878677189 98.38610609005968 93.54145642874903 C 0.0 **** -0.24
18587 H 5.5527323482970985 99.29030557719165 93.09618027350388 H 0.0 **** 0.06
18588 H 6.919667626972014 98.61867874610982 94.01817732752545 H 0.0 **** 0.06
18589 H 6.123251466786769 97.63704488560452 92.76445268084592 H 0.0 **** 0.06
18590 H 5.273818255636641 97.99722316662417 94.2862423850502 H 0.0 **** 0.06
18591 C 12.513858570770424 33.76692941967275 40.62319009811793 C 0.0 **** -0.24
18592 H 13.102178704963421 33.66514785415791 39.71076556002967 H 0.0 **** 0.06
18593 H 11.45283454191906 33.73800370705811 40.3767903759728 H 0.0 **** 0.06
18594 H 12.750974308824766 34.71675348207668 41.10301919385637 H 0.0 **** 0.06
18595 H 12.752335928206605 32.947060123622464 41.301890718325865 H 0.0 **** 0.06
18596 C 4.952428513992942 44.38409753480845 3.9941731338933266 C 0.0 **** -0.24
18597 H 4.340152505484127 43.73953433145114 3.3637907904088706 H 0.0 **** 0.06
18598 H 5.946157788121781 43.95003267193289 4.100527863888857 H 0.0 **** 0.06
18599 H 4.488547122587448 44.47798633820567 4.975951362071527 H 0.0 **** 0.06
18600 H 5.0321214213940095 45.36940275396664 3.5353276285293305 H 0.0 **** 0.06
18601 C 33.093185063472305 17.754786414621066 12.940467638553969 C 0.0 **** -0.24
18602 H 33.44613950106421 18.477160775975534 12.204594014680708 H 0.0 **** 0.06
18603 H 33.935516092776766 17.165189897700515 13.30258080877411 H 0.0 **** 0.06
18604 H 32.35925370360505 17.095438654878393 12.478842516502823 H 0.0 **** 0.06
18605 H 32.63366607365782 18.283726218570308 13.775724822672146 H 0.0 **** 0.06
18606 C 105.50731574431683 14.432339364507186 33.862807233724055 C 0.0 **** -0.24
18607 H 106.03300130396786 13.62923329078123 33.346891691971734 H 0.0 **** 0.06
18608 H 104.44782995739791 14.181879792515161 33.939309483779795 H 0.0 **** 0.06
18609 H 105.6219583558011 15.359931103947645 33.30267854688378 H 0.0 **** 0.06
18610 H 105.92413552665269 14.556580267686456 34.8616200025574 H 0.0 **** 0.06
18611 C 93.48458860369854 45.431625250021625 9.244329328836088 C 0.0 **** -0.24
18612 H 94.50103626766679 45.82508465107341 9.213532461975277 H 0.0 **** 0.06
18613 H 93.02961778793969 45.52678438796977 8.257984614028885 H 0.0 **** 0.06
18614 H 92.89934999759927 45.993457483994234 9.971393145716135 H 0.0 **** 0.06
18615 H 93.51102879993024 44.38044894650193 9.533266880823021 H 0.0 **** 0.06
18616 C 31.857680258439743 32.40641141179471 48.90530914880239 C 0.0 **** -0.24
18617 H 31.929482841686763 31.4562562246102 49.434763654028416 H 0.0 **** 0.06
18618 H 31.30543829296238 33.12060813364164 49.516734085237374 H 0.0 **** 0.06
18619 H 31.33761675926806 32.2572732206483 47.95960927493911 H 0.0 **** 0.06
18620 H 32.85978055623315 32.79070904920678 48.71254004592987 H 0.0 **** 0.06
18621 C 38.93688583800471 95.53353923079376 10.053354712697057 C 0.0 **** -0.24
18622 H 39.92315587624702 95.8978902106318 10.342701203569078 H 0.0 **** 0.06
18623 H 39.04129760623738 94.79581933401312 9.257676323962087 H 0.0 **** 0.06
18624 H 38.330648804620466 96.36713786221893 9.700018488873155 H 0.0 **** 0.06
18625 H 38.45353896891589 95.07172927884625 10.915324565931016 H 0.0 **** 0.06
18626 C 98.99313952564407 36.02925185963727 22.10780700154044 C 0.0 **** -0.24
18627 H 98.33074328837796 35.16372801308887 22.12743505414105 H 0.0 **** 0.06
18628 H 98.42231915227424 36.92795026308204 22.338505411400252 H 0.0 **** 0.06
18629 H 99.43690019713398 36.12410997120509 21.116158360801997 H 0.0 **** 0.06
18630 H 99.78219940341535 35.89857954456187 22.84775954011532 H 0.0 **** 0.06
18631 C 104.63717535129739 4.409980724334417 107.51384544227278 C 0.0 **** -0.24
18632 H 104.51064544847003 5.483642148415214 107.3708421305883 H 0.0 **** 0.06
18633 H 105.44863838282399 4.231286285524078 108.22025444200995 H 0.0 **** 0.06
18634 H 104.87505105698025 3.941963374227157 106.5596644593652 H 0.0 **** 0.06
18635 H 103.7133380832616 3.985803062608227 107.9066845265288 H 0.0 **** 0.06
18636 C 101.98267192796709 23.068154959491252 76.65393371264933 C 0.0 **** -0.24
18637 H 101.41695571130123 23.793037670780024 76.06882282013709 H 0.0 **** 0.06
18638 H 101.65763589355811 23.107392729559706 77.69378011894129 H 0.0 **** 0.06
18639 H 103.04552116292524 23.30500390479594 76.59515703851169 H 0.0 **** 0.06
18640 H 101.81181600834873 22.06765968839386 76.25617620119152 H 0.0 **** 0.06
18641 C 66.82003268923276 101.68787037011991 68.8519342215809 C 0.0 **** -0.24
18642 H 66.47231201179058 100.93315763154884 69.55697077169512 H 0.0 **** 0.06
18643 H 66.99957647319455 101.22274057631431 67.88187703594103 H 0.0 **** 0.06
18644 H 67.7457303606828 102.13053494762474 69.21939637652031 H 0.0 **** 0.06
18645 H 66.06180668145446 102.46395242569137 68.74741857661317 H 0.0 **** 0.06
18646 C 17.57431112796599 13.869227209981101 15.277761932609224 C 0.0 **** -0.24
18647 H 18.33147538380271 13.675408973428144 16.038171947632094 H 0.0 **** 0.06
18648 H 17.783398683121394 14.82301373687412 14.792789521836397 H 0.0 **** 0.06
18649 H 16.590809388979345 13.907095782093652 15.745945490187864 H 0.0 **** 0.06
18650 H 17.593083180415622 13.071957599975473 14.535677535601252 H 0.0 **** 0.06
18651 C 60.59651934863899 12.933201906977402 37.64017254010378 C 0.0 **** -0.24
18652 H 60.40288122555464 13.931845368101904 38.031589277943 H 0.0 **** 0.06
18653 H 61.30395655807894 12.418611460482737 38.29132681347937 H 0.0 **** 0.06
18654 H 61.01510688514597 13.010789992705341 36.63719842995931 H 0.0 **** 0.06
18655 H 59.663057006525804 12.371160551346335 37.601401918365696 H 0.0 **** 0.06
18656 C 109.40901755233084 79.31338661723771 1.7802187067466093 C 0.0 **** -0.24
18657 H 109.57268154503036 78.94419700781623 2.7924319544874265 H 0.0 **** 0.06
18658 H 109.35502610397474 80.40195112418436 1.7945641360084892 H 0.0 **** 0.06
18659 H 108.47474418453217 78.90769243894408 1.3922869432549874 H 0.0 **** 0.06
18660 H 110.23522891108264 78.99815594131161 1.141527804048451 H 0.0 **** 0.06
18661 C 53.819700473956374 62.12752781465798 71.2774775016973 C 0.0 **** -0.24
18662 H 54.157363714462946 63.027964049020966 71.7918312219885 H 0.0 **** 0.06
18663 H 52.75738551225871 61.97488295697336 71.47331197505738 H 0.0 **** 0.06
18664 H 54.38349522725889 61.26900185452382 71.64004626557092 H 0.0 **** 0.06
18665 H 53.97970746699545 62.241262596120194 70.2052467791951 H 0.0 **** 0.06
18666 C 13.061779503815387 110.7444031102856 5.246274012131494 C 0.0 **** -0.24
18667 H 12.898151875822833 110.72344645569956 6.324237107751657 H 0.0 **** 0.06
18668 H 12.14227247017621 111.0485412447354 4.745749898835157 H 0.0 **** 0.06
18669 H 13.35000136313593 109.75012664089373 4.904736272052389 H 0.0 **** 0.06
18670 H 13.855613704548716 111.453866422784 5.013562604486765 H 0.0 **** 0.06
18671 C 20.38634057762772 69.72167283357925 27.68522188885251 C 0.0 **** -0.24
18672 H 19.735482309802705 70.30564062583227 27.034232100036377 H 0.0 **** 0.06
18673 H 19.815628691517844 68.90720434725012 28.132157704045937 H 0.0 **** 0.06
18674 H 20.78210962787645 70.36384968320584 28.47236249631362 H 0.0 **** 0.06
18675 H 21.210377320817884 69.3116954957884 27.102172556909068 H 0.0 **** 0.06
18676 C 96.53090025498432 19.09185053943264 84.39261192187506 C 0.0 **** -0.24
18677 H 97.52659607761154 19.48058510359607 84.60611560310858 H 0.0 **** 0.06
18678 H 96.2444221794915 19.36400347604507 83.3769349925932 H 0.0 **** 0.06
18679 H 95.81706103614118 19.517248385140306 85.09841914077123 H 0.0 **** 0.06
18680 H 96.53664126189165 18.006265556296228 84.49167176688587 H 0.0 **** 0.06
18681 C 33.09463100472644 81.82304390488562 89.77788754658124 C 0.0 **** -0.24
18682 H 33.719327164828485 82.50731388812159 90.35269437984637 H 0.0 **** 0.06
18683 H 33.72071409516781 81.24088324974872 89.10160617181863 H 0.0 **** 0.06
18684 H 32.36780002020441 82.39418498645045 89.20090305902977 H 0.0 **** 0.06
18685 H 32.57159353290416 81.15119072099145 90.45863101625534 H 0.0 **** 0.06
18686 C 53.0534363878258 29.349983649174078 81.3229256306185 C 0.0 **** -0.24
18687 H 52.42462984654327 30.006765664292374 81.92378938809205 H 0.0 **** 0.06
18688 H 52.854319694688655 29.52559009498546 80.2650577011249 H 0.0 **** 0.06
18689 H 52.8319728150139 28.311133753606214 81.5667007536064 H 0.0 **** 0.06
18690 H 54.1025085602804 29.55802097358813 81.53430591856699 H 0.0 **** 0.06
18691 C 63.841630683454525 45.35366763266056 22.84299182387099 C 0.0 **** -0.24
18692 H 63.239070968510305 45.84313346995258 22.077967296380052 H 0.0 **** 0.06
18693 H 63.24694385528545 45.228029514220154 23.747942214269045 H 0.0 **** 0.06
18694 H 64.71495904892879 45.966805230818764 23.064236884254854 H 0.0 **** 0.06
18695 H 64.16523015304546 44.37760025871758 22.48077579907624 H 0.0 **** 0.06
18696 C 2.9392522707470903 105.68869299150117 115.81262101905156 C 0.0 **** -0.24
18697 H 3.508708848215889 104.7603221057459 115.76805352983031 H 0.0 **** 0.06
18698 H 3.548790380635239 106.50643281734489 115.42642224011453 H 0.0 **** 0.06
18699 H 2.6638595251101265 105.89726627618552 116.84604180905392 H 0.0 **** 0.06
18700 H 2.037116911567864 105.59017096268468 115.20838117476966 H 0.0 **** 0.06
18701 C 23.108512808402764 41.38393437363885 10.719404895061416 C 0.0 **** -0.24
18702 H 23.300341422050337 42.307606967042375 10.173394568262111 H 0.0 **** 0.06
18703 H 22.032231731145288 41.224868797819084 10.79601965805388 H 0.0 **** 0.06
18704 H 23.537097647584886 41.45687474581686 11.718657745072704 H 0.0 **** 0.06
18705 H 23.562244402354622 40.547095860445296 10.188580546816084 H 0.0 **** 0.06
18706 C 78.90718158485834 9.904425057810585 91.49058491760178 C 0.0 **** -0.24
18707 H 78.23356578714203 10.761156523710554 91.49662548031381 H 0.0 **** 0.06
18708 H 78.3336754612821 8.990212559870258 91.64343708933757 H 0.0 **** 0.06
18709 H 79.63896742660023 10.013442892868099 92.29101551832531 H 0.0 **** 0.06
18710 H 79.42211793879233 9.854808586114373 90.53087071864576 H 0.0 **** 0.06
18711 C 13.979103724569853 58.07540250262085 75.86213122206453 C 0.0 **** -0.24
18712 H 13.237340738516963 58.46222152677541 76.56218791446986 H 0.0 **** 0.06
18713 H 14.935722776685111 57.9615071115831 76.37325982993667 H 0.0 **** 0.06
18714 H 14.09072450699938 58.77059076642513 75.03086799317003 H 0.0 **** 0.06
18715 H 13.650797818041156 57.1068818418662 75.48512259214675 H 0.0 **** 0.06
18716 C 9.377090243300927 70.33807747633386 28.455741170226133 C 0.0 **** -0.24
18717 H 9.251890292819155 69.77600710298971 27.529436949560328 H 0.0 **** 0.06
18718 H 10.421991038675912 70.63210752978388 28.563339074044727 H 0.0 **** 0.06
18719 H 9.08467624225625 69.71524688038805 29.30069182734828 H 0.0 **** 0.06
18720 H 8.749306358667639 71.22914826154248 28.42579361529824 H 0.0 **** 0.06
18721 C 100.66194876801126 112.49010088232409 113.53315085393677 C 0.0 **** -0.24
18722 H 101.20610681704392 113.07001201635883 114.27811770378514 H 0.0 **** 0.06
18723 H 100.61994858048223 113.04944348134555 112.59775656278987 H 0.0 **** 0.06
18724 H 99.64952494547634 112.30053930582484 113.88935858871992 H 0.0 **** 0.06
18725 H 101.17312030596418 111.5423621998221 113.3667671088271 H 0.0 **** 0.06
18726 C 12.146016503097144 53.125230906490295 46.41453125403089 C 0.0 **** -0.24
18727 H 12.020001062122802 54.135976990921435 46.80277089924249 H 0.0 **** 0.06
18728 H 12.857473758645654 52.58288337056313 47.03781314624976 H 0.0 **** 0.06
18729 H 12.520645037692816 53.172474226017385 45.39276660526329 H 0.0 **** 0.06
18730 H 11.185591015383935 52.6091353429705 46.426934995213685 H 0.0 **** 0.06
18731 C 93.31567971878054 24.877547240694682 85.33604907568804 C 0.0 **** -0.24
18732 H 93.310424510159 25.23563554240615 84.30634876500238 H 0.0 **** 0.06
18733 H 92.29233555191728 24.824718433961827 85.7069511631149 H 0.0 **** 0.06
18734 H 93.89261241989611 25.563609835909425 85.956191259675 H 0.0 **** 0.06
18735 H 93.76754332901857 23.886148644162457 85.37372765912664 H 0.0 **** 0.06
18736 C 11.726511004629913 95.63833739313806 20.45025952749812 C 0.0 **** -0.24
18737 H 12.313636922814112 95.07343467608638 21.174099711557204 H 0.0 **** 0.06
18738 H 12.048646372959723 96.67917173085142 20.45440493802336 H 0.0 **** 0.06
18739 H 10.671253885115036 95.58290606216389 20.71559567877486 H 0.0 **** 0.06
18740 H 11.873740801327912 95.21587006241062 19.45615776605183 H 0.0 **** 0.06
18741 C 25.523758424925973 73.14698667585196 0.40200440898240686 C 0.0 **** -0.24
18742 H 24.96539356476677 72.77741666508422 -0.4583445143367868 H 0.0 **** 0.06
18743 H 24.863616829964826 73.73865262643073 1.0365602025891292 H 0.0 **** 0.06
18744 H 26.350978424300706 73.76753643784053 0.058166378713025324 H 0.0 **** 0.06
18745 H 25.91439137273204 72.30330174625391 0.970933396136175 H 0.0 **** 0.06
18746 C 43.43297140590667 71.51857348710521 20.394871664559048 C 0.0 **** -0.24
18747 H 44.448971661903926 71.82896045791281 20.637762449272316 H 0.0 **** 0.06
18748 H 43.336646613663106 71.40418001000921 19.315307305632444 H 0.0 **** 0.06
18749 H 42.729092781396275 72.27402609204509 20.745550800203247 H 0.0 **** 0.06
18750 H 43.216556653818714 70.56720373736069 20.881648670328346 H 0.0 **** 0.06
18751 C 115.77107477846903 35.12570043734094 91.37863617140579 C 0.0 **** -0.24
18752 H 116.08799808552243 34.16626662114764 91.78608660949388 H 0.0 **** 0.06
18753 H 115.88377014522924 35.11483337031075 90.29449078436409 H 0.0 **** 0.06
18754 H 116.38585062882508 35.92002701586563 91.80099555449695 H 0.0 **** 0.06
18755 H 114.72542319543122 35.30048692787689 91.63306697960303 H 0.0 **** 0.06
18756 C 18.12493467640194 25.987056610087677 7.104408740563631 C 0.0 **** -0.24
18757 H 18.558014955362907 24.98874551715778 7.17274636229468 H 0.0 **** 0.06
18758 H 18.76876306935574 26.62097164572296 6.493537753262521 H 0.0 **** 0.06
18759 H 18.037927722904183 26.413670669266793 8.104400676127714 H 0.0 **** 0.06
18760 H 17.13786493102755 25.92480758491547 6.647939856377741 H 0.0 **** 0.06
18761 C 9.941946015735041 15.434116593692579 39.34319331610831 C 0.0 **** -0.24
18762 H 9.519325586350718 14.500024640570018 39.711626051232656 H 0.0 **** 0.06
18763 H 9.356652693294905 15.787445691913888 38.49344105338707 H 0.0 **** 0.06
18764 H 10.973206339435507 15.268874429086196 39.03074212877422 H 0.0 **** 0.06
18765 H 9.918129024899983 16.181436213536387 40.136738985081394 H 0.0 **** 0.06
18766 C 88.9044738931177 62.2620506036026 33.590837565228924 C 0.0 **** -0.24
18767 H 88.84896611030284 61.37115636921931 32.96431703763332 H 0.0 **** 0.06
18768 H 89.29809951072606 63.09329980516617 33.00476908326982 H 0.0 **** 0.06
18769 H 89.56208721951761 62.0696413268584 34.43804231487661 H 0.0 **** 0.06
18770 H 87.90731199489466 62.5125802013886 33.95328431177387 H 0.0 **** 0.06
18771 C 20.345170691734978 69.29441825964899 49.307854609738925 C 0.0 **** -0.24
18772 H 20.05228429903434 68.48347420062434 49.97364268992496 H 0.0 **** 0.06
18773 H 21.40828679245041 69.503284286185 49.435627106203356 H 0.0 **** 0.06
18774 H 19.76798905221159 70.18767961012529 49.54743359207124 H 0.0 **** 0.06
18775 H 20.153498082134178 69.00408285511833 48.27533901084756 H 0.0 **** 0.06
18776 C 72.52974756265928 30.832098359579476 84.93883446454561 C 0.0 **** -0.24
18777 H 72.1932224093153 31.5475202151041 84.1894841734933 H 0.0 **** 0.06
18778 H 73.54783823123134 30.516571516579035 84.70825948718429 H 0.0 **** 0.06
18779 H 71.87068189678257 29.964124509859886 84.93443227934468 H 0.0 **** 0.06
18780 H 72.50861357511195 31.299181934950724 85.92354145211183 H 0.0 **** 0.06
18781 C 107.81008758167472 46.84807610796315 46.89993084655478 C 0.0 **** -0.24
18782 H 108.44313951581626 46.54499566246898 47.73357886385277 H 0.0 **** 0.06
18783 H 108.3805281871675 46.79072024192283 45.971971541995025 H 0.0 **** 0.06
18784 H 107.47136669070882 47.87285765916499 47.05550572210251 H 0.0 **** 0.06
18785 H 106.94718396236784 46.185664464926504 46.83778855167986 H 0.0 **** 0.06
18786 C 107.8748025242408 31.67952364942923 113.36271289306018 C 0.0 **** -0.24
18787 H 108.64790314165606 32.39357518667933 113.07633469053684 H 0.0 **** 0.06
18788 H 108.29618907573888 30.94316861561549 114.04738888862971 H 0.0 **** 0.06
18789 H 107.49852406653258 31.175286712161295 112.4722898356901 H 0.0 **** 0.06
18790 H 107.05714901975148 32.20773055923928 113.8531308365329 H 0.0 **** 0.06
18791 C 65.0597426303436 107.04967771814017 108.63113656278722 C 0.0 **** -0.24
18792 H 65.97115494318832 106.77099316026192 109.16027839649394 H 0.0 **** 0.06
18793 H 65.27655660468852 107.16092546724042 107.56885732595572 H 0.0 **** 0.06
18794 H 64.68363170596798 107.99327510635533 109.02690684529924 H 0.0 **** 0.06
18795 H 64.30861351112878 106.27172350956477 108.7694039624609 H 0.0 **** 0.06
18796 C 2.693910696015365 71.90813797165725 93.74789987282986 C 0.0 **** -0.24
18797 H 2.6877547725393356 71.80560669621434 92.66298284030381 H 0.0 **** 0.06
18798 H 3.7224727688730894 72.00254524071886 94.09752387097899 H 0.0 **** 0.06
18799 H 2.235102829821443 71.02823729572134 94.19899820267676 H 0.0 **** 0.06
18800 H 2.130388315938987 72.79735952276076 94.03134500578193 H 0.0 **** 0.06
18801 C 53.31956982101434 44.91866052756512 66.15521822143226 C 0.0 **** -0.24
18802 H 52.86976819341123 44.01137046383815 66.55786665729893 H 0.0 **** 0.06
18803 H 52.81444938821829 45.79105069691656 66.57125952118561 H 0.0 **** 0.06
18804 H 53.21869117410307 44.923201872269146 65.06973885756224 H 0.0 **** 0.06
18805 H 54.37632302107107 44.9491776380994 66.4217477095613 H 0.0 **** 0.06
18806 C 25.436463083163858 109.89383678862188 31.8970142594236 C 0.0 **** -0.24
18807 H 25.883415211046696 110.78049213123997 32.34734046107042 H 0.0 **** 0.06
18808 H 24.56839284309362 109.58847661777014 32.482593347985414 H 0.0 **** 0.06
18809 H 26.16793310791627 109.08537449501141 31.88283963661803 H 0.0 **** 0.06
18810 H 25.12590755126945 110.12034675514907 30.87763455506365 H 0.0 **** 0.06
18811 C 114.0151342810062 89.36864294592328 77.13347587213688 C 0.0 **** -0.24
18812 H 113.56245002909549 89.38326699486288 76.14264259135312 H 0.0 **** 0.06
18813 H 114.94362736856877 89.94019060484743 77.11777664277163 H 0.0 **** 0.06
18814 H 114.22576697625306 88.33856432614482 77.42155307837608 H 0.0 **** 0.06
18815 H 113.32630462723219 89.81264954345494 77.85344358697226 H 0.0 **** 0.06
18816 C 115.47616076596458 114.538215693115 29.206910638710582 C 0.0 **** -0.24
18817 H 115.03717324963793 113.54235055916902 29.256791334802188 H 0.0 **** 0.06
18818 H 114.69142261541612 115.27245843869272 29.022370047635945 H 0.0 **** 0.06
18819 H 116.20450963701691 114.57374203574581 28.397399492393546 H 0.0 **** 0.06
18820 H 115.97153756178739 114.7643117388527 30.15108168001065 H 0.0 **** 0.06
18821 C 57.51583384089916 108.4875140785569 83.42983896804958 C 0.0 **** -0.24
18822 H 57.42001832625829 108.86458606344883 82.41064037368449 H 0.0 **** 0.06
18823 H 56.754021919965496 107.72814525892295 83.60801636163728 H 0.0 **** 0.06
18824 H 57.38396688343633 109.30877298169423 84.13420426179061 H 0.0 **** 0.06
18825 H 58.50532194443714 108.04884305938464 83.56238194213626 H 0.0 **** 0.06
18826 C 5.724794418190527 6.249603306871279 105.62718101207739 C 0.0 **** -0.24
18827 H 5.181858998487087 5.573655121725494 106.287414081653 H 0.0 **** 0.06
18828 H 6.598786795335343 6.64181882808748 106.14811567081097 H 0.0 **** 0.06
18829 H 5.073730549536208 7.074795688119423 105.33702764072117 H 0.0 **** 0.06
18830 H 6.044725716817538 5.708867864642627 104.73685204931257 H 0.0 **** 0.06
18831 C 2.6291562971800886 36.9253963589302 111.26970064913338 C 0.0 **** -0.24
18832 H 2.1580797666807143 36.604248473301254 110.34039363644618 H 0.0 **** 0.06
18833 H 2.141096179628903 36.43591466841966 112.11264404250609 H 0.0 **** 0.06
18834 H 2.5338360148635957 38.00626808876491 111.37126775918004 H 0.0 **** 0.06
18835 H 3.6856568191378756 36.653498469139805 111.25345661705659 H 0.0 **** 0.06
18836 C 42.658472108547755 67.57736485802025 34.60496533130265 C 0.0 **** -0.24
18837 H 43.17060793832775 66.64349332137772 34.37370273928002 H 0.0 **** 0.06
18838 H 43.39512117663486 68.36813816760503 34.74819696004181 H 0.0 **** 0.06
18839 H 42.07459052118895 67.45419200306361 35.517920630148524 H 0.0 **** 0.06
18840 H 41.99548175220144 67.84223212583998 33.78187686715188 H 0.0 **** 0.06
18841 C 15.803929041690921 95.2185327770981 49.005416283193384 C 0.0 **** -0.24
18842 H 16.34078208523463 96.01491704760623 48.488804700805815 H 0.0 **** 0.06
18843 H 14.739386995147687 95.29451620203787 48.78283297116728 H 0.0 **** 0.06
18844 H 15.9592708166502 95.31558595251815 50.08015169104243 H 0.0 **** 0.06
18845 H 16.178761435143574 94.251897740287 48.670128509844886 H 0.0 **** 0.06
18846 C 84.18104530936539 49.86507485532903 19.49264658911892 C 0.0 **** -0.24
18847 H 83.72735400573426 49.81633413142498 18.502959227543556 H 0.0 **** 0.06
18848 H 83.61305146846419 50.553580533992374 20.11899196537007 H 0.0 **** 0.06
18849 H 85.20821918089419 50.21881638005678 19.403023300086943 H 0.0 **** 0.06
18850 H 84.17607500818296 48.873908773888445 19.943807900221657 H 0.0 **** 0.06
18851 C 40.80044863216392 62.66150378361482 10.231920067885156 C 0.0 **** -0.24
18852 H 40.658043452171 63.12410827090508 11.207899234729155 H 0.0 **** 0.06
18853 H 39.836250274253075 62.33707728290392 9.839320295689504 H 0.0 **** 0.06
18854 H 41.46065068361651 61.8002177223936 10.331830533382032 H 0.0 **** 0.06
18855 H 41.24746950872651 63.38417916627645 9.549285333988664 H 0.0 **** 0.06
18856 C 56.970092290261846 75.89563794707931 86.71255407719013 C 0.0 **** -0.24
18857 H 56.92316148256691 74.84697965381088 86.41582871353296 H 0.0 **** 0.06
18858 H 57.42629498838346 75.972675949841 87.70049785667197 H 0.0 **** 0.06
18859 H 55.962390935377925 76.30982074062837 86.74336217411877 H 0.0 **** 0.06
18860 H 57.56927279909007 76.4496949147121 85.99062049548758 H 0.0 **** 0.06
18861 C 48.41972691241767 1.5569401238167906 89.35280405733775 C 0.0 **** -0.24
18862 H 48.39211134462363 2.606718240390773 89.64830863463074 H 0.0 **** 0.06
18863 H 49.31781881436865 1.3704712555926708 88.76402069696654 H 0.0 **** 0.06
18864 H 47.537683034340034 1.3253637093806407 88.75506451361895 H 0.0 **** 0.06
18865 H 48.43006424035224 0.9291281877433359 90.24348460401504 H 0.0 **** 0.06
18866 C 84.06834506400216 32.6797395563158 51.57736634856224 C 0.0 **** -0.24
18867 H 84.62729845879034 32.870650763674405 52.493122065088414 H 0.0 **** 0.06
18868 H 84.40911498265888 33.358652380576565 50.79481036346854 H 0.0 **** 0.06
18869 H 83.00571339920162 32.839574743705825 51.759836093338976 H 0.0 **** 0.06
18870 H 84.23171468979356 31.649109274782617 51.26077797236198 H 0.0 **** 0.06
18871 C 29.041299212875423 106.33577805046393 12.093446324868296 C 0.0 **** -0.24
18872 H 28.682865882183307 106.38268504040349 13.121857160724005 H 0.0 **** 0.06
18873 H 28.335511858644026 105.7651399365254 11.488842341840808 H 0.0 **** 0.06
18874 H 30.01627185637853 105.84892210068944 12.070970050873285 H 0.0 **** 0.06
18875 H 29.129785166817904 107.34562619021493 11.693484457024283 H 0.0 **** 0.06
18876 C 96.33362161006727 91.61205866486847 38.635419790852836 C 0.0 **** -0.24
18877 H 95.8178229574778 90.9510707018998 37.93816928041683 H 0.0 **** 0.06
18878 H 97.1219222022149 91.05720306357625 39.14408764701069 H 0.0 **** 0.06
18879 H 95.62245777606137 91.9905810074294 39.37009279967924 H 0.0 **** 0.06
18880 H 96.76996662614272 92.4470152141838 38.08790075218038 H 0.0 **** 0.06
18881 C 86.24212479259444 65.92003567558092 98.16201513394397 C 0.0 **** -0.24
18882 H 87.1502767872623 65.92408435940189 97.55875138572978 H 0.0 **** 0.06
18883 H 86.16798275865219 66.85757290748307 98.7127958855866 H 0.0 **** 0.06
18884 H 86.27518114291064 65.08712610632179 98.86364283078844 H 0.0 **** 0.06
18885 H 85.37480675777891 65.81154064077012 97.51065592570396 H 0.0 **** 0.06
18886 C 47.5192925623322 43.550492728480606 90.58421843675487 C 0.0 **** -0.24
18887 H 48.216592035232615 44.332481322083936 90.28377238020047 H 0.0 **** 0.06
18888 H 47.262077800342006 42.94148070398086 89.71672920968314 H 0.0 **** 0.06
18889 H 46.61527094458296 44.00584449362276 90.98878888637643 H 0.0 **** 0.06
18890 H 47.98233266376435 42.922756232613665 91.34478220325721 H 0.0 **** 0.06
18891 C 2.525000533050701 83.44739758681624 101.28678945075421 C 0.0 **** -0.24
18892 H 3.013015912527848 83.52748994588234 100.31544463220598 H 0.0 **** 0.06
18893 H 2.6085447948846223 82.42282408624118 101.65037589049382 H 0.0 **** 0.06
18894 H 1.473238650943415 83.71338386211167 101.18797285285245 H 0.0 **** 0.06
18895 H 3.0069979034082053 84.12340772684212 101.99258711526807 H 0.0 **** 0.06
18896 C 31.197107526587814 0.7850890503237906 51.80716009435946 C 0.0 **** -0.24
18897 H 30.302850622335313 0.3938478954685536 52.29329542363496 H 0.0 **** 0.06
18898 H 31.257130774785736 0.3955683325762607 50.790760374255456 H 0.0 **** 0.06
18899 H 32.07925879928547 0.4765096869780905 52.367025606925836 H 0.0 **** 0.06
18900 H 31.14789370157925 1.8736588505302052 51.77670756123189 H 0.0 **** 0.06
18901 C 104.4080530660712 14.967127259883455 65.94124208332317 C 0.0 **** -0.24
18902 H 105.17754640157159 15.72045595361476 66.10986129141446 H 0.0 **** 0.06
18903 H 104.75468544897163 14.004209119841818 66.3168166018595 H 0.0 **** 0.06
18904 H 104.20337473205942 14.890226333737829 64.87310041802056 H 0.0 **** 0.06
18905 H 103.49638072596383 15.255081387329184 66.46608834646105 H 0.0 **** 0.06
18906 C 102.87901091470565 12.285030626446868 79.57802026003259 C 0.0 **** -0.24
18907 H 103.30542848739339 12.615274530522754 80.52606491163965 H 0.0 **** 0.06
18908 H 102.23512289511817 13.068234783961117 79.17763540551226 H 0.0 **** 0.06
18909 H 102.29414500134834 11.379831298344868 79.73858035630462 H 0.0 **** 0.06
18910 H 103.68349308445968 12.079125797195786 78.87150399625114 H 0.0 **** 0.06
18911 C 37.69426115721228 66.6453249895697 84.2385342797166 C 0.0 **** -0.24
18912 H 38.55132250935537 66.9253154360507 83.62422420403921 H 0.0 **** 0.06
18913 H 37.8218085305314 65.6234482543494 84.59561571903446 H 0.0 **** 0.06
18914 H 36.78398835681625 66.71196961953638 83.6430593017909 H 0.0 **** 0.06
18915 H 37.62240432655665 67.32161941831015 85.09037405304719 H 0.0 **** 0.06
18916 C 77.8886313752617 108.30918481249824 57.96170087693402 C 0.0 **** -0.24
18917 H 77.11093007585185 107.6108278534677 57.65114355535296 H 0.0 **** 0.06
18918 H 78.02824365625861 109.06428894841903 57.18801960030973 H 0.0 **** 0.06
18919 H 78.8226541067447 107.76854228858814 58.11476541765461 H 0.0 **** 0.06
18920 H 77.59151583138723 108.79243470347153 58.892442758337566 H 0.0 **** 0.06
18921 C 94.11638372054574 28.37238931298009 83.01700735190909 C 0.0 **** -0.24
18922 H 94.43010701489112 29.095125035898803 83.77035941784368 H 0.0 **** 0.06
18923 H 94.97286406864617 27.771385224439598 82.71229433075811 H 0.0 **** 0.06
18924 H 93.71587351553183 28.901276792356825 82.15273823497688 H 0.0 **** 0.06
18925 H 93.34657554113278 27.72352380014061 83.4350689317925 H 0.0 **** 0.06
18926 C 13.636509329403225 55.042688082993664 103.08670665329316 C 0.0 **** -0.24
18927 H 13.412456353379667 55.3739191759268 104.10049152038619 H 0.0 **** 0.06
18928 H 13.607700576578168 53.953875601697405 103.04571902202906 H 0.0 **** 0.06
18929 H 14.629080777322855 55.39145591339013 102.80132885924166 H 0.0 **** 0.06
18930 H 12.896017320224871 55.451943906470035 102.39884848578265 H 0.0 **** 0.06
18931 C 68.42743484770114 28.82816973633578 40.79287824290731 C 0.0 **** -0.24
18932 H 68.72057986762307 27.931661860710292 41.340257679476736 H 0.0 **** 0.06
18933 H 68.31814788481368 28.58775292986263 39.735445189703114 H 0.0 **** 0.06
18934 H 69.19361262174715 29.59397811986777 40.914725301815224 H 0.0 **** 0.06
18935 H 67.47930742547025 29.19803008090743 41.18196848405944 H 0.0 **** 0.06
18936 C 15.342871268950404 97.71349037783182 42.31250157007973 C 0.0 **** -0.24
18937 H 15.631626444244944 96.73052733760238 41.938833631721124 H 0.0 **** 0.06
18938 H 15.781004700613835 97.86875225863011 43.29874364727934 H 0.0 **** 0.06
18939 H 14.256404226523983 97.76900566890214 42.383452231947075 H 0.0 **** 0.06
18940 H 15.702154398145979 98.48209964124925 41.62932523814885 H 0.0 **** 0.06
18941 C 58.19321895604561 32.94853741869247 86.11656030882972 C 0.0 **** -0.24
18942 H 57.137186996692705 32.93668078254734 85.84558519340669 H 0.0 **** 0.06
18943 H 58.653154872831564 32.004156590040765 85.82540680859728 H 0.0 **** 0.06
18944 H 58.28955537827517 33.08214467916699 87.19404671160925 H 0.0 **** 0.06
18945 H 58.69007109920196 33.76989589608186 85.60216684143154 H 0.0 **** 0.06
18946 C 72.55705092097546 110.00349910102341 2.6092787625179543 C 0.0 **** -0.24
18947 H 72.21417576692463 108.98568461745492 2.425233064487026 H 0.0 **** 0.06
18948 H 72.13308559591991 110.67122677744845 1.8584586924327837 H 0.0 **** 0.06
18949 H 73.64499213773774 110.03626875740383 2.552651905739932 H 0.0 **** 0.06
18950 H 72.23597054985197 110.32083003938669 3.6017711133587706 H 0.0 **** 0.06
18951 C 14.726572141634875 82.59017962329193 102.25231729257786 C 0.0 **** -0.24
18952 H 14.315892481281367 83.27794463363296 101.51367190118242 H 0.0 **** 0.06
18953 H 14.243345528288387 82.75921001947387 103.21414693855414 H 0.0 **** 0.06
18954 H 15.79888111458908 82.76055410284368 102.3493253732762 H 0.0 **** 0.06
18955 H 14.549296203035567 81.56337094441 101.93086000260513 H 0.0 **** 0.06
18956 C 48.60596882401785 68.96125234556861 15.50274346092506 C 0.0 **** -0.24
18957 H 47.736322981259775 68.31325315332124 15.389828640925884 H 0.0 **** 0.06
18958 H 49.29546026967381 68.52099996843263 16.22330710397813 H 0.0 **** 0.06
18959 H 48.28498594228029 69.9400459040753 15.858121669877065 H 0.0 **** 0.06
18960 H 49.104984886231364 69.0697311152395 14.540452545661381 H 0.0 **** 0.06
18961 C 25.704444689769723 32.07576940129543 34.99695654979098 C 0.0 **** -0.24
18962 H 26.43722099457952 31.97272533457169 35.79821458958571 H 0.0 **** 0.06
18963 H 25.348953733065258 31.088173214542714 34.70098936448932 H 0.0 **** 0.06
18964 H 26.16787182267968 32.56822992364286 34.1429036239478 H 0.0 **** 0.06
18965 H 24.863413159965262 32.67398875757194 35.34944654734568 H 0.0 **** 0.06
18966 C 98.50639705886093 84.77526752070607 86.77031055868909 C 0.0 **** -0.24
18967 H 99.29922353432845 84.88889239652075 86.03135921443747 H 0.0 **** 0.06
18968 H 97.56421637165124 85.12669372225795 86.34784893764119 H 0.0 **** 0.06
18969 H 98.7486523261413 85.36139651235442 87.65660268018561 H 0.0 **** 0.06
18970 H 98.4121369736888 83.72371057424272 87.04369609671096 H 0.0 **** 0.06
18971 C 86.54556956568669 81.60699563806045 75.35022015965208 C 0.0 **** -0.24
18972 H 86.95451170617689 81.95698732016793 76.29862026729901 H 0.0 **** 0.06
18973 H 85.52742592307597 81.98025393179562 75.23436510005746 H 0.0 **** 0.06
18974 H 86.53785939242997 80.51756294005925 75.337832845756 H 0.0 **** 0.06
18975 H 87.16295210804503 81.97621591568196 74.53194717489598 H 0.0 **** 0.06
18976 C 39.89881751487971 35.246876853215895 93.17858225083624 C 0.0 **** -0.24
18977 H 39.83288271066721 36.03902824119132 93.92363343623381 H 0.0 **** 0.06
18978 H 40.15095950213586 34.30647118356757 93.6705123810396 H 0.0 **** 0.06
18979 H 40.67182655798604 35.495362776398 92.45041372649068 H 0.0 **** 0.06
18980 H 38.94009365825062 35.14546293645867 92.67036938559092 H 0.0 **** 0.06
18981 C 86.90137159967955 24.993400623865938 69.47897449154733 C 0.0 **** -0.24
18982 H 86.13161274425651 25.27378455615036 70.19832818633355 H 0.0 **** 0.06
18983 H 86.67960601216188 24.005506142843046 69.07615066932661 H 0.0 **** 0.06
18984 H 87.87168609527258 24.97531490959682 69.97390293704932 H 0.0 **** 0.06
18985 H 86.9218613509875 25.721277553917474 68.66698681852259 H 0.0 **** 0.06
18986 C 40.21671197859287 20.029242117125513 35.862984066622914 C 0.0 **** -0.24
18987 H 40.33112288830159 20.125421559519516 34.783919131503296 H 0.0 **** 0.06
18988 H 40.48666629500349 20.970115126123076 36.34184851904838 H 0.0 **** 0.06
18989 H 40.86874193120215 19.235450091926303 36.22772332424847 H 0.0 **** 0.06
18990 H 39.18103062048655 19.784871088238564 36.0979382063944 H 0.0 **** 0.06
18991 C 106.51470520236245 28.226429693512294 50.07064664922504 C 0.0 **** -0.24
18992 H 107.59110753272711 28.39259367470799 50.105403981775034 H 0.0 **** 0.06
18993 H 106.2892809476551 27.458260393412957 49.33122703919716 H 0.0 **** 0.06
18994 H 106.01182799319372 29.154392132807075 49.7957323684738 H 0.0 **** 0.06
18995 H 106.1663886173996 27.90115094185481 51.051445252921766 H 0.0 **** 0.06
18996 C 99.96530821500208 63.48772547197569 81.95134994630538 C 0.0 **** -0.24
18997 H 98.9632346469143 63.43465117520833 81.52572424383676 H 0.0 **** 0.06
18998 H 100.5749383903573 64.17379200487221 81.36219089123095 H 0.0 **** 0.06
18999 H 100.41854337473355 62.49656875973716 81.93911033864889 H 0.0 **** 0.06
19000 H 99.90499860862323 63.846507554571076 82.9795516802193 H 0.0 **** 0.06
19001 C 98.13768858785969 0.019921275560790264 25.535520097523204 C 0.0 **** -0.24
19002 H 98.79459424590958 -0.48754220358023304 24.828232040213493 H 0.0 **** 0.06
19003 H 98.69512035980588 0.8006752550460021 26.053097726917713 H 0.0 **** 0.06
19004 H 97.76068526254095 -0.7004732117583785 26.261668047907563 H 0.0 **** 0.06
19005 H 97.30093495488717 0.46547565050815365 24.997276447612478 H 0.0 **** 0.06
19006 C 49.42629078699218 34.721951876062604 96.33795210934672 C 0.0 **** -0.24
19007 H 49.07654361547998 33.76977845580595 96.73604783915941 H 0.0 **** 0.06
19008 H 49.80148198423632 35.34090396081214 97.15382190083265 H 0.0 **** 0.06
19009 H 48.60123258137065 35.23367696186676 95.84259573257327 H 0.0 **** 0.06
19010 H 50.22677915296646 34.543106406025856 95.61968804911723 H 0.0 **** 0.06
19011 C 87.64431376853022 59.41880516876276 101.10156701876659 C 0.0 **** -0.24
19012 H 88.4660897317284 59.79322290619757 101.71213002868639 H 0.0 **** 0.06
19013 H 86.73974490822584 59.98620329174511 101.32288164001781 H 0.0 **** 0.06
19014 H 87.47608741559957 58.36450106972046 101.32587803668166 H 0.0 **** 0.06
19015 H 87.89479038501781 59.530367818946104 100.04758045415657 H 0.0 **** 0.06
19016 C 55.5490623508195 72.71589688781768 34.82475806745555 C 0.0 **** -0.24
19017 H 56.16774497129745 72.80560117739614 35.71766708276712 H 0.0 **** 0.06
19018 H 56.06124484787455 73.17790585771635 33.98035390159552 H 0.0 **** 0.06
19019 H 54.59547946662798 73.21701724562939 34.991478287499945 H 0.0 **** 0.06
19020 H 55.371898433762 71.66124092822224 34.610348655500275 H 0.0 **** 0.06
19021 C 100.69258317933259 94.27525626449875 22.04279970548484 C 0.0 **** -0.24
19022 H 99.98916587007301 93.72051296794393 21.421577089949864 H 0.0 **** 0.06
19023 H 100.92349061553654 95.22823257830294 21.566931608529956 H 0.0 **** 0.06
19024 H 101.60784268451627 93.69580665372132 22.16008436155721 H 0.0 **** 0.06
19025 H 100.24848350886833 94.45527691287441 23.021741274117005 H 0.0 **** 0.06
19026 C 19.61001310208394 26.20308389473334 59.98584065710162 C 0.0 **** -0.24
19027 H 19.837997241135213 27.0299064976995 59.31273501700164 H 0.0 **** 0.06
19028 H 19.25158821353395 25.352645687326003 59.40647206304038 H 0.0 **** 0.06
19029 H 18.839859700593394 26.512236311509923 60.692597391762376 H 0.0 **** 0.06
19030 H 20.510599676512754 25.919833747887907 60.53067983735235 H 0.0 **** 0.06
19031 C 56.97637867886269 95.51805034337907 82.83761785503611 C 0.0 **** -0.24
19032 H 57.66830253513183 96.02688438646267 83.50798476108122 H 0.0 **** 0.06
19033 H 56.36668776629713 96.2573614635838 82.31678900017607 H 0.0 **** 0.06
19034 H 56.331127298204336 94.85714230956525 83.41624707366947 H 0.0 **** 0.06
19035 H 57.53916233269189 94.93277321268428 82.11050109270326 H 0.0 **** 0.06
19036 C 113.24978266138743 31.52152078322746 29.403605669872604 C 0.0 **** -0.24
19037 H 113.32778816357401 30.84853374403076 30.257112028865095 H 0.0 **** 0.06
19038 H 112.40576586813448 31.222508925361353 28.78077647508644 H 0.0 **** 0.06
19039 H 114.16860881516341 31.474702322272037 28.81820141340154 H 0.0 **** 0.06
19040 H 113.09658828194402 32.541393812917704 29.7574715780147 H 0.0 **** 0.06
19041 C 82.98318761602407 114.08584145641669 81.13930478968713 C 0.0 **** -0.24
19042 H 84.07196028501066 114.06577180253488 81.10816375174508 H 0.0 **** 0.06
19043 H 82.59087946515886 113.16988750797643 80.69673584620082 H 0.0 **** 0.06
19044 H 82.61972832107783 114.94582988487696 80.57610159171867 H 0.0 **** 0.06
19045 H 82.65025950090343 114.16143709923533 82.17402681616349 H 0.0 **** 0.06
19046 C 15.633241415563106 102.67903395309435 104.5977373348706 C 0.0 **** -0.24
19047 H 15.077884640313357 103.59226391081981 104.80961561393282 H 0.0 **** 0.06
19048 H 16.461273382307127 102.90506054786174 103.92634433519757 H 0.0 **** 0.06
19049 H 14.970405694746006 101.95242218974711 104.12624418213302 H 0.0 **** 0.06
19050 H 16.021265598873157 102.26541358387917 105.52804906856888 H 0.0 **** 0.06
19051 C 38.47345832293337 105.47765319306563 25.342439180430702 C 0.0 **** -0.24
19052 H 37.50902628215965 105.3457643032038 24.851768492728844 H 0.0 **** 0.06
19053 H 39.267512446631855 105.13816105957608 24.67709362022839 H 0.0 **** 0.06
19054 H 38.49552803141751 104.89429364395613 26.26282720055437 H 0.0 **** 0.06
19055 H 38.62144178825696 106.53220077105573 25.575863416547236 H 0.0 **** 0.06
19056 C 0.2630491151778074 89.30910998361345 45.63141907845494 C 0.0 **** -0.24
19057 H 0.8360379159994977 90.19971573208088 45.88786544931344 H 0.0 **** 0.06
19058 H -0.2045500067113153 89.44625877405426 44.656092538386616 H 0.0 **** 0.06
19059 H -0.5082671492033342 89.14350652086907 46.3845607326725 H 0.0 **** 0.06
19060 H 0.9289128187834876 88.44623459481242 45.598370660140006 H 0.0 **** 0.06
19061 C 61.250900034015444 54.79034797951507 5.770420919931036 C 0.0 **** -0.24
19062 H 61.012019050317676 54.674955135676434 6.827954351335551 H 0.0 **** 0.06
19063 H 61.84361780725395 53.9384757364109 5.437326536431534 H 0.0 **** 0.06
19064 H 61.82055716923389 55.70769447675364 5.626144673852345 H 0.0 **** 0.06
19065 H 60.327848862565546 54.839817266304834 5.193356934817258 H 0.0 **** 0.06
19066 C 4.255966874378714 41.84629883253251 59.420223196600645 C 0.0 **** -0.24
19067 H 3.65894832649289 42.588011473476456 59.94967168004173 H 0.0 **** 0.06
19068 H 5.037862352085796 41.47026506941759 60.080301711408936 H 0.0 **** 0.06
19069 H 4.710763676742857 42.30538269596974 58.54207601912944 H 0.0 **** 0.06
19070 H 3.616429758249268 41.02119852989935 59.107912008419774 H 0.0 **** 0.06
19071 C 91.7312850473005 24.061348803162872 66.46542838594348 C 0.0 **** -0.24
19072 H 92.09157958481092 25.021046914643165 66.09715967768281 H 0.0 **** 0.06
19073 H 90.64187394509915 24.07277039756802 66.50557284560976 H 0.0 **** 0.06
19074 H 92.12934483475624 23.882474917293706 67.46517495243346 H 0.0 **** 0.06
19075 H 92.06270695105809 23.26728959321275 65.79541188271405 H 0.0 **** 0.06
19076 C 44.16688877030589 42.89781346170619 70.67533597836251 C 0.0 **** -0.24
19077 H 45.22852915077476 42.99883644789239 70.45014138020554 H 0.0 **** 0.06
19078 H 43.75624364671859 42.05502747434835 70.11991552796951 H 0.0 **** 0.06
19079 H 43.64563200165003 43.811541510348945 70.38835681988235 H 0.0 **** 0.06
19080 H 44.03760428733335 42.72753624806211 71.74464641305121 H 0.0 **** 0.06
19081 C 112.10899844233563 83.20127093010063 56.08033430575517 C 0.0 **** -0.24
19082 H 111.55489389919575 83.09930602039452 55.147461408412596 H 0.0 **** 0.06
19083 H 112.84822886325952 83.99643600310873 55.97916367892708 H 0.0 **** 0.06
19084 H 112.61282616853276 82.26214228571325 56.30890937621933 H 0.0 **** 0.06
19085 H 111.41816707618113 83.4478864619116 56.88803938242489 H 0.0 **** 0.06
19086 C 30.89516575044246 29.805151390635857 42.85263362384728 C 0.0 **** -0.24
19087 H 30.747398245281502 29.498375578254908 43.88853515039841 H 0.0 **** 0.06
19088 H 29.94790129584382 29.741741643341264 42.31725170102345 H 0.0 **** 0.06
19089 H 31.624318856200915 29.147231191616875 42.380113468794264 H 0.0 **** 0.06
19090 H 31.26069196621171 30.83145710642956 42.82625770004336 H 0.0 **** 0.06
19091 C 31.726990502094054 53.970484801426565 80.9515979738098 C 0.0 **** -0.24
19092 H 30.657478329006892 53.763468091830305 80.98939148991177 H 0.0 **** 0.06
19093 H 32.11244259847905 54.07165556190253 81.96715044881417 H 0.0 **** 0.06
19094 H 31.899662784066777 54.89524199926848 80.4027401997864 H 0.0 **** 0.06
19095 H 32.23806002581193 53.149116294358386 80.44991357217187 H 0.0 **** 0.06
19096 C 76.59104739721181 78.64107121608403 100.56860982978792 C 0.0 **** -0.24
19097 H 75.78487825529385 79.32690176973875 100.82803667959658 H 0.0 **** 0.06
19098 H 77.49612496128282 79.20948549283564 100.35135089577686 H 0.0 **** 0.06
19099 H 76.3066655643716 78.0612586278688 99.69125196866308 H 0.0 **** 0.06
19100 H 76.77716386724688 77.96776610079998 101.40562085828753 H 0.0 **** 0.06
19101 C 33.44682919384201 4.342821280663401 12.963910207658444 C 0.0 **** -0.24
19102 H 34.46287295380586 4.195113700971319 12.5997302683271 H 0.0 **** 0.06
19103 H 32.986278446237236 3.3738760803672108 13.158133777105249 H 0.0 **** 0.06
19104 H 32.865589073383774 4.87807954944995 12.212903499025067 H 0.0 **** 0.06
19105 H 33.4727888272206 4.923566166847934 13.886111403322133 H 0.0 **** 0.06
19106 C 104.314111065657 60.1857465749581 2.192380814734392 C 0.0 **** -0.24
19107 H 103.47917799763712 60.344806383840194 2.876415484287321 H 0.0 **** 0.06
19108 H 103.93715147340288 59.80449105183243 1.2426817472348404 H 0.0 **** 0.06
19109 H 105.00537049001603 59.46373891680264 2.626958653190954 H 0.0 **** 0.06
19110 H 104.83126018762216 61.130033692431084 2.026085582987548 H 0.0 **** 0.06
19111 C 98.6399440737996 102.54723812793328 50.20264452791492 C 0.0 **** -0.24
19112 H 98.44568017223992 102.83945553332477 51.234345573027014 H 0.0 **** 0.06
19113 H 97.79382885949121 101.97323025733893 49.822747627985784 H 0.0 **** 0.06
19114 H 99.54080002719354 101.9354747786497 50.16281151523292 H 0.0 **** 0.06
19115 H 98.77841333620052 103.4393532503873 49.59202237435466 H 0.0 **** 0.06
19116 C 10.369564957194214 23.274431597252807 59.81462670996979 C 0.0 **** -0.24
19117 H 10.231352022463625 23.061696680258407 60.87510662189345 H 0.0 **** 0.06
19118 H 10.757129641807893 24.286854108493507 59.695601921292734 H 0.0 **** 0.06
19119 H 9.412178201097333 23.18878042362002 59.300566368722514 H 0.0 **** 0.06
19120 H 11.076039416770868 22.56183811495446 59.38934926945694 H 0.0 **** 0.06
19121 C 2.870106642642895 88.16398671495475 10.19167148690794 C 0.0 **** -0.24
19122 H 2.67029320527881 87.4205830710992 9.419754920642127 H 0.0 **** 0.06
19123 H 2.2617699875087283 87.94855325520702 11.07054550414557 H 0.0 **** 0.06
19124 H 2.6234018524658467 89.15642119974811 9.813328862791963 H 0.0 **** 0.06
19125 H 3.9249615253180963 88.13038933376488 10.463056660052146 H 0.0 **** 0.06
19126 C 77.24708167469417 94.48317379918416 22.815221162166452 C 0.0 **** -0.24
19127 H 77.57181036756268 95.1070235806942 21.982897162540635 H 0.0 **** 0.06
19128 H 76.17326798594196 94.3093931838248 22.741281659207473 H 0.0 **** 0.06
19129 H 77.47044201143892 94.98676451217017 23.756340267389994 H 0.0 **** 0.06
19130 H 77.77280633383323 93.52951392004758 22.78036555952758 H 0.0 **** 0.06
19131 C 64.31040120665799 111.1057434404642 14.485276290974355 C 0.0 **** -0.24
19132 H 63.92168032948638 110.18756885051289 14.927755850316146 H 0.0 **** 0.06
19133 H 63.47943154033379 111.7241402016529 14.144671738809734 H 0.0 **** 0.06
19134 H 64.94970193284826 110.85811010179542 13.639073153053488 H 0.0 **** 0.06
19135 H 64.88807417567253 111.65113089467178 15.23119316846305 H 0.0 **** 0.06
19136 C 46.69386354162146 105.5891074194643 12.426717299258144 C 0.0 **** -0.24
19137 H 47.290294906262766 104.67871407165073 12.382648694947761 H 0.0 **** 0.06
19138 H 47.10459635011272 106.25573820858337 13.186264278447254 H 0.0 **** 0.06
19139 H 45.66426852026863 105.33685220054262 12.683004293448477 H 0.0 **** 0.06
19140 H 46.71549692714351 106.08557946565026 11.456991042157924 H 0.0 **** 0.06
19141 C 35.789321689280456 81.67626473105138 77.50930838675276 C 0.0 **** -0.24
19142 H 36.8540815868387 81.6273340856367 77.7380784154119 H 0.0 **** 0.06
19143 H 35.53883546611294 80.90337231405263 76.7822598655602 H 0.0 **** 0.06
19144 H 35.55192816836423 82.6560592094688 77.09492975778335 H 0.0 **** 0.06
19145 H 35.21379562500603 81.51790018871205 78.42207508858064 H 0.0 **** 0.06
19146 C 100.44682917766971 113.4442957062753 47.9019618083596 C 0.0 **** -0.24
19147 H 101.1677130698364 112.65891569357399 48.12983287251308 H 0.0 **** 0.06
19148 H 100.4459256354516 114.18071114332902 48.70639397871338 H 0.0 **** 0.06
19149 H 99.45205606127672 113.00749818829414 47.80821753343287 H 0.0 **** 0.06
19150 H 100.72108922227363 113.92829766600384 46.96502101974221 H 0.0 **** 0.06
19151 C 98.02734436792014 113.10525864467945 80.43668993724242 C 0.0 **** -0.24
19152 H 98.72815948540227 113.17530091983727 81.26898546319237 H 0.0 **** 0.06
19153 H 97.36889345188973 112.24969204655227 80.58687895754724 H 0.0 **** 0.06
19154 H 98.58069854027934 112.97939671601458 79.50573476965349 H 0.0 **** 0.06
19155 H 97.43237225240838 114.0178137795335 80.38488320628545 H 0.0 **** 0.06
19156 C 14.473947679524798 85.45129224946629 72.64498388562764 C 0.0 **** -0.24
19157 H 14.150171162262438 84.6136404140207 73.26379791151345 H 0.0 **** 0.06
19158 H 14.000343235692839 85.38374010050022 71.66632203947124 H 0.0 **** 0.06
19159 H 15.557554752635752 85.41766560261925 72.52849114114423 H 0.0 **** 0.06
19160 H 14.189015714713946 86.38811793135865 73.1246869387014 H 0.0 **** 0.06
19161 C 22.566933306247012 107.4495488908862 68.49425894582419 C 0.0 **** -0.24
19162 H 23.049703267020977 108.3535178845512 68.8664145760128 H 0.0 **** 0.06
19163 H 21.49426560402129 107.50996863948137 68.67683764180475 H 0.0 **** 0.06
19164 H 22.975591348568894 106.58106643035569 69.00959408160585 H 0.0 **** 0.06
19165 H 22.749291844958282 107.35621472759021 67.42312509836339 H 0.0 **** 0.06
19166 C 38.00312374861548 40.817897043758364 9.82724125772333 C 0.0 **** -0.24
19167 H 37.11373896753767 40.542727305344954 10.394459822949102 H 0.0 **** 0.06
19168 H 37.80827862061096 41.73257925436235 9.267330207493075 H 0.0 **** 0.06
19169 H 38.25365471966853 40.01368580487315 9.134983281014598 H 0.0 **** 0.06
19170 H 38.83436760142854 40.98004569776478 10.512877446105989 H 0.0 **** 0.06
19171 C 105.55805607393802 36.643951163675865 104.08421110234568 C 0.0 **** -0.24
19172 H 105.72861096495717 36.325543646751214 103.0554534647396 H 0.0 **** 0.06
19173 H 104.96543323334055 37.558748476372216 104.08677963167455 H 0.0 **** 0.06
19174 H 106.51609259549241 36.82883150398891 104.56958292756883 H 0.0 **** 0.06
19175 H 105.02341419315371 35.86154769235981 104.6218730437476 H 0.0 **** 0.06
19176 C 84.99820114146122 54.72485233587899 104.40667703861172 C 0.0 **** -0.24
19177 H 85.12034695574843 54.44703542990763 103.35976026881866 H 0.0 **** 0.06
19178 H 85.89724300377539 54.45421978936086 104.96163234113509 H 0.0 **** 0.06
19179 H 84.14080725956582 54.196482570797116 104.8243907150587 H 0.0 **** 0.06
19180 H 84.83369104654417 55.79944638289834 104.48019279719772 H 0.0 **** 0.06
19181 C 66.43633731782629 3.1739568363906603 2.9305913078802917 C 0.0 **** -0.24
19182 H 65.91610969013493 2.2160305605121167 2.9307599129687105 H 0.0 **** 0.06
19183 H 67.51264111187926 3.0025178552537586 2.9220847867337767 H 0.0 **** 0.06
19184 H 66.1638810879611 3.7341549990467247 3.8252097696915826 H 0.0 **** 0.06
19185 H 66.15121627435927 3.7423650832124924 2.045784231701731 H 0.0 **** 0.06
19186 C 71.77572726044178 44.863040264449296 35.80893732776724 C 0.0 **** -0.24
19187 H 71.36613125618896 44.02595564438104 35.244527949993575 H 0.0 **** 0.06
19188 H 71.8911744490415 45.7235877906285 35.14923473462126 H 0.0 **** 0.06
19189 H 72.74774059271721 44.58458917500616 36.21702024925485 H 0.0 **** 0.06
19190 H 71.09853974789195 45.11712779856995 36.62411161980232 H 0.0 **** 0.06
19191 C 102.23017564023552 95.92916771576262 102.45813296149527 C 0.0 **** -0.24
19192 H 101.73861642515483 95.06029880788256 102.02228915537253 H 0.0 **** 0.06
19193 H 102.19296489127149 96.75967387773679 101.75169361701269 H 0.0 **** 0.06
19194 H 103.26911299518775 95.68647324591299 102.6790629594644 H 0.0 **** 0.06
19195 H 101.71984799843666 96.21212183345446 103.3783129274431 H 0.0 **** 0.06
19196 C 30.61513987772507 91.89211054297948 26.519977156147377 C 0.0 **** -0.24
19197 H 30.115228010508666 90.92427993939191 26.5309554883911 H 0.0 **** 0.06
19198 H 30.923828346053348 92.13107754681755 25.501976277064472 H 0.0 **** 0.06
19199 H 31.49213581694292 91.85627134302422 27.166236566845015 H 0.0 **** 0.06
19200 H 29.92915895239726 92.65912159859522 26.881533306485522 H 0.0 **** 0.06
19201 C 7.58510524740187 13.397399170180904 93.59815078565688 C 0.0 **** -0.24
19202 H 7.980363018544509 14.364189431741835 93.90901797152023 H 0.0 **** 0.06
19203 H 7.4711150492508125 12.75331552717796 94.47110161518526 H 0.0 **** 0.06
19204 H 8.273181770302244 12.933872311896806 92.89110332527105 H 0.0 **** 0.06
19205 H 6.6149473613211285 13.538190644929472 93.12196072610055 H 0.0 **** 0.06
19206 C 30.052988722710893 66.09449369053864 29.624761389859827 C 0.0 **** -0.24
19207 H 30.83513470069616 66.84763998103912 29.72033277206964 H 0.0 **** 0.06
19208 H 29.898972831179776 65.60644920232657 30.58698756852135 H 0.0 **** 0.06
19209 H 30.351417950434893 65.35289665514809 28.884428132889752 H 0.0 **** 0.06
19210 H 29.126069118051475 66.57210389563961 29.306021468932613 H 0.0 **** 0.06
19211 C 52.411089876488234 60.38102627904357 43.4370551460722 C 0.0 **** -0.24
19212 H 53.28956936641532 60.976135990971954 43.68706271949847 H 0.0 **** 0.06
19213 H 51.723996274748515 60.37418294772709 44.284100122579275 H 0.0 **** 0.06
19214 H 52.717699419193394 59.360307357042245 43.20849437621166 H 0.0 **** 0.06
19215 H 51.91341838166022 60.81441390796118 42.56870735767646 H 0.0 **** 0.06
19216 C 34.067394760624296 91.43646182605539 102.33451427432351 C 0.0 **** -0.24
19217 H 34.21380659164046 90.36365122670526 102.46433958374439 H 0.0 **** 0.06
19218 H 34.85776611845847 91.9762368886216 102.85694092200328 H 0.0 **** 0.06
19219 H 33.09919065937237 91.72225336210158 102.74439781070834 H 0.0 **** 0.06
19220 H 34.098904530232204 91.6809257584058 101.27289237509063 H 0.0 **** 0.06
19221 C 109.76031393790721 110.07165721180118 22.20970490657139 C 0.0 **** -0.24
19222 H 109.48775663246741 110.97384902009725 21.661891047866973 H 0.0 **** 0.06
19223 H 110.2116651341675 109.35381214792355 21.525270775307778 H 0.0 **** 0.06
19224 H 108.8664738819938 109.63545342277189 22.657675737438066 H 0.0 **** 0.06
19225 H 110.47307657655728 110.32412894937147 22.994620815015047 H 0.0 **** 0.06
19226 C 34.82043510518986 77.6412764909752 16.49255315091923 C 0.0 **** -0.24
19227 H 35.86604630164976 77.74281051237855 16.782133168213612 H 0.0 **** 0.06
19228 H 34.62357215060901 78.26487051231305 15.619922596216874 H 0.0 **** 0.06
19229 H 34.181466049125916 77.95753286268001 17.316860125672882 H 0.0 **** 0.06
19230 H 34.610536421011886 76.5999023496421 16.249300256197948 H 0.0 **** 0.06
19231 C 89.67547662271173 56.146534985339855 52.14817905446239 C 0.0 **** -0.24
19232 H 88.76020857752178 56.597596023611246 51.76404634953883 H 0.0 **** 0.06
19233 H 89.43875314000502 55.192602034965425 52.62069523514464 H 0.0 **** 0.06
19234 H 90.12794773712008 56.81293413313732 52.88348966910689 H 0.0 **** 0.06
19235 H 90.37255009313031 55.98309279334562 51.32731445752063 H 0.0 **** 0.06
19236 C 95.68745945881165 5.691922703608862 54.23995533012094 C 0.0 **** -0.24
19237 H 96.03945273426987 5.018613171786077 55.02146960205244 H 0.0 **** 0.06
19238 H 96.17172293998487 5.438308604991217 53.2967149851273 H 0.0 **** 0.06
19239 H 95.93317996855913 6.7197488936457805 54.50892255446866 H 0.0 **** 0.06
19240 H 94.6075799445747 5.592908393451021 54.13289966442519 H 0.0 **** 0.06
19241 C 66.7708701825776 54.772632985864064 48.123482209016856 C 0.0 **** -0.24
19242 H 65.75841651291563 54.844931124907106 48.521248626704676 H 0.0 **** 0.06
19243 H 66.80787245650885 55.23656533383441 47.136880835929844 H 0.0 **** 0.06
19244 H 67.05543001117312 53.724221530552626 48.0434285386051 H 0.0 **** 0.06
19245 H 67.46066219180454 55.2867607541295 48.79233581190039 H 0.0 **** 0.06
19246 C 73.12580974041629 68.18671708013429 31.567444409488985 C 0.0 **** -0.24
19247 H 73.68266965629113 67.27544527919974 31.35232533047315 H 0.0 **** 0.06
19248 H 73.68682444779478 69.04873441975528 31.205667970187335 H 0.0 **** 0.06
19249 H 72.97701420595206 68.27525330616339 32.64402317149239 H 0.0 **** 0.06
19250 H 72.15733895420612 68.14723819100635 31.06902260294487 H 0.0 **** 0.06
19251 C 59.97797092618664 44.10139977369266 10.334720664849158 C 0.0 **** -0.24
19252 H 60.53778403177233 43.92139854280336 9.41653689213743 H 0.0 **** 0.06
19253 H 60.305040944782505 43.39941503469357 11.102720187845051 H 0.0 **** 0.06
19254 H 58.914432685962595 43.96166036870781 10.144048691246155 H 0.0 **** 0.06
19255 H 60.155738531507424 45.12152119090117 10.67448602991567 H 0.0 **** 0.06
19256 C 27.792793173506197 78.62104887669875 95.2718214325352 C 0.0 **** -0.24
19257 H 27.803798031742502 79.70400956429933 95.14729185731824 H 0.0 **** 0.06
19258 H 28.279434063654207 78.15227098781588 94.41705980661399 H 0.0 **** 0.06
19259 H 26.762031454145074 78.27410439842231 95.33912165055438 H 0.0 **** 0.06
19260 H 28.32578286793938 78.35612964777874 96.18459101049365 H 0.0 **** 0.06
19261 C 9.49723584534739 1.8360104759334916 52.909395357154466 C 0.0 **** -0.24
19262 H 9.195482008821376 1.500138122433711 53.90076353161937 H 0.0 **** 0.06
19263 H 10.020667372718794 1.029536229492237 52.39461836412375 H 0.0 **** 0.06
19264 H 10.159001251504279 2.6973972990352593 53.002925429940674 H 0.0 **** 0.06
19265 H 8.612984269827024 2.117972167858028 52.33744576681633 H 0.0 **** 0.06
19266 C 0.43907405785411413 8.820666427292526 75.38465621449127 C 0.0 **** -0.24
19267 H 0.3321796390625593 7.73978814843395 75.47744251084043 H 0.0 **** 0.06
19268 H -0.4179245918491006 9.225479275814383 74.84575690846671 H 0.0 **** 0.06
19269 H 1.3541062065860388 9.048934010712959 74.83769857731397 H 0.0 **** 0.06
19270 H 0.48905084087957107 9.267210595789443 76.37729871395585 H 0.0 **** 0.06
19271 C 55.396496393168874 43.36552894246744 43.39961356329255 C 0.0 **** -0.24
19272 H 55.08812206728956 42.80598226755673 42.51717020583476 H 0.0 **** 0.06
19273 H 56.33693673458585 42.961627355911354 43.77542876587523 H 0.0 **** 0.06
19274 H 54.63072321070382 43.279191835834986 44.17063295624135 H 0.0 **** 0.06
19275 H 55.52999978805272 44.41411773412738 43.13645798389501 H 0.0 **** 0.06
19276 C 49.518745961436686 104.47204997296431 114.23913825575792 C 0.0 **** -0.24
19277 H 48.89322411797187 104.3956405619021 115.12873850431846 H 0.0 **** 0.06
19278 H 49.03065957735571 105.11495396829416 113.50615140076485 H 0.0 **** 0.06
19279 H 49.665561466591434 103.4798414457808 113.81266552591354 H 0.0 **** 0.06
19280 H 50.485031297333656 104.89744545121303 114.50979833922528 H 0.0 **** 0.06
19281 C 43.6164963129454 84.47810952820666 115.6797911300502 C 0.0 **** -0.24
19282 H 44.481333773602614 83.82081446183494 115.77703305697932 H 0.0 **** 0.06
19283 H 43.75809410506855 85.35815024537953 116.30885001191976 H 0.0 **** 0.06
19284 H 42.71887523426244 83.94651591980545 115.99487073844963 H 0.0 **** 0.06
19285 H 43.51052977380368 84.78696421261682 114.64038342982516 H 0.0 **** 0.06
19286 C 14.830828893639222 75.82562440406214 28.56598976070069 C 0.0 **** -0.24
19287 H 13.746890559295508 75.71770412446445 28.56389983699887 H 0.0 **** 0.06
19288 H 15.10041325128995 76.78119719830202 29.017216463098862 H 0.0 **** 0.06
19289 H 15.20102953439175 75.79028404586504 27.540475155530828 H 0.0 **** 0.06
19290 H 15.276079335683932 75.01362357573734 29.1410638987208 H 0.0 **** 0.06
19291 C 52.91270583536442 95.63409304015893 105.68912707670447 C 0.0 **** -0.24
19292 H 52.36633214383244 96.14156679655173 106.48434261229586 H 0.0 **** 0.06
19293 H 52.32113857016623 95.65239487348113 104.77299179609028 H 0.0 **** 0.06
19294 H 53.10169744877578 94.60143386338046 105.97987209453142 H 0.0 **** 0.06
19295 H 53.86104252806436 96.14311124080874 105.51904033044727 H 0.0 **** 0.06
19296 C 37.09587047967614 77.23564654608394 65.92984357167245 C 0.0 **** -0.24
19297 H 37.25388362795741 77.58386320468092 66.94986586370152 H 0.0 **** 0.06
19298 H 36.84456528693951 78.08283957241875 65.29197351329691 H 0.0 **** 0.06
19299 H 36.27820138567161 76.51454817626944 65.91464530355995 H 0.0 **** 0.06
19300 H 38.005333010165884 76.76085157907013 65.5621682008495 H 0.0 **** 0.06
19301 C 32.140402935560616 78.15314193668229 76.27373496292772 C 0.0 **** -0.24
19302 H 32.34825479787915 77.32956291725208 75.59124634822999 H 0.0 **** 0.06
19303 H 31.359547780050377 77.85558346026062 76.97428173991536 H 0.0 **** 0.06
19304 H 31.806638965713887 79.02038521403136 75.70474619642313 H 0.0 **** 0.06
19305 H 33.04669895202758 78.40545511583258 76.82519321458241 H 0.0 **** 0.06
19306 C 29.240009233355238 87.16953577760171 112.90432018702326 C 0.0 **** -0.24
19307 H 29.37003147347815 88.03510284154875 113.55277785265805 H 0.0 **** 0.06
19308 H 30.13350720527731 87.0330382728216 112.29620894416152 H 0.0 **** 0.06
19309 H 28.37814124717721 87.3277994491354 112.2551670426706 H 0.0 **** 0.06
19310 H 29.076150037255104 86.28057012547266 113.51433727814494 H 0.0 **** 0.06
19311 C 18.629184180800124 41.416018743236975 2.3735193261386343 C 0.0 **** -0.24
19312 H 18.601267598369816 41.807470123857115 3.3902267632650194 H 0.0 **** 0.06
19313 H 17.873145662082848 40.63856091481449 2.2632304199348 H 0.0 **** 0.06
19314 H 19.61517874634565 40.99541724635924 2.174193731808316 H 0.0 **** 0.06
19315 H 18.42945813206441 42.222431510327795 1.6685736162005327 H 0.0 **** 0.06
19316 C 79.03148176431834 84.49866967419075 13.341505528266623 C 0.0 **** -0.24
19317 H 78.01807993878691 84.09998992294388 13.319107871830226 H 0.0 **** 0.06
19318 H 79.74577892224497 83.67486387807878 13.346422842391291 H 0.0 **** 0.06
19319 H 79.16540739854034 85.10200107901495 14.239279823700599 H 0.0 **** 0.06
19320 H 79.19751494405585 85.11769219463936 12.460092100555471 H 0.0 **** 0.06
19321 C 66.49607781885544 37.384660777151666 56.06509761564608 C 0.0 **** -0.24
19322 H 66.73621893286455 38.428834027077215 55.861632396659985 H 0.0 **** 0.06
19323 H 66.05589596444543 36.93467915159157 55.1750678169564 H 0.0 **** 0.06
19324 H 65.78619870797019 37.32959805256499 56.890282010984336 H 0.0 **** 0.06
19325 H 67.40581861132131 36.84746587880804 56.33191561694659 H 0.0 **** 0.06
19326 C 70.76041053546464 48.05303164168902 97.34400447358581 C 0.0 **** -0.24
19327 H 71.26051813682268 47.264140930704606 97.90616495673328 H 0.0 **** 0.06
19328 H 71.43937801533717 48.44471163302846 96.58596189363726 H 0.0 **** 0.06
19329 H 70.47134226740349 48.854979642083975 98.02267556341519 H 0.0 **** 0.06
19330 H 69.87232170900057 47.64780166735613 96.86093475386002 H 0.0 **** 0.06
19331 C 59.79525451866664 1.7820114290967979 72.32886355252151 C 0.0 **** -0.24
19332 H 60.58258799793424 2.3594908613905545 71.84430699673368 H 0.0 **** 0.06
19333 H 58.90256291652895 1.7874563625975952 71.70303958553541 H 0.0 **** 0.06
19334 H 59.564338454718 2.225934179769098 73.29760653165692 H 0.0 **** 0.06
19335 H 60.13424944039092 0.7556912280117274 72.47106714973509 H 0.0 **** 0.06
19336 C 72.57627265139456 69.26895597037822 39.11707431713634 C 0.0 **** -0.24
19337 H 71.59363058018978 69.04550164392543 39.53355880390225 H 0.0 **** 0.06
19338 H 72.45970925677962 69.72049675596142 38.13161885070184 H 0.0 **** 0.06
19339 H 73.15183096753859 68.34809681511115 39.02921345822904 H 0.0 **** 0.06
19340 H 73.09946714240142 69.96274148539399 39.776090106082535 H 0.0 **** 0.06
19341 C 99.73346338145342 15.4156154946678 47.87396725945632 C 0.0 **** -0.24
19342 H 99.82406201304008 15.76250802937324 46.844039553656174 H 0.0 **** 0.06
19343 H 99.21498938251005 16.169395179788207 48.46663703395819 H 0.0 **** 0.06
19344 H 100.7269977970721 15.244981765177155 48.288298090748754 H 0.0 **** 0.06
19345 H 99.16693075677432 14.483962769068988 47.89413180009825 H 0.0 **** 0.06
19346 C 63.76567414605364 0.8915508621838768 96.58548156624899 C 0.0 **** -0.24
19347 H 62.68953396678046 0.8702356884194096 96.40851650943478 H 0.0 **** 0.06
19348 H 64.06306838433932 1.8948877165830922 96.89357812350642 H 0.0 **** 0.06
19349 H 64.28917868472166 0.6236313608914124 95.66724916465786 H 0.0 **** 0.06
19350 H 64.0191726580116 0.17921354190663763 97.37062079099927 H 0.0 **** 0.06
19351 C 4.372130573562231 30.759115162778926 29.90247778470966 C 0.0 **** -0.24
19352 H 4.763896250823564 30.08776510367369 30.667585875432508 H 0.0 **** 0.06
19353 H 3.885476216247298 31.6097269704905 30.380687673275787 H 0.0 **** 0.06
19354 H 3.649621609048495 30.224509850683944 29.286787568746632 H 0.0 **** 0.06
19355 H 5.191554084908944 31.113115515552067 29.276872944364825 H 0.0 **** 0.06
19356 C 47.01442940471355 94.47794591609505 104.56859726760842 C 0.0 **** -0.24
19357 H 46.21239366216298 93.75199502454791 104.70293466674315 H 0.0 **** 0.06
19358 H 47.078331952347185 94.75833083106795 103.51690417775842 H 0.0 **** 0.06
19359 H 47.95919866359134 94.03687095067176 104.88581715549176 H 0.0 **** 0.06
19360 H 46.80747286121027 95.36368698808974 105.16902901588008 H 0.0 **** 0.06
19361 C 101.59565429015923 4.666105702296136 50.00650357617309 C 0.0 **** -0.24
19362 H 100.75540310282331 5.14885522338119 50.505145104757105 H 0.0 **** 0.06
19363 H 102.26667674140269 5.428299868745739 49.60843628822397 H 0.0 **** 0.06
19364 H 101.22592908480118 4.045428467531451 49.19061904477027 H 0.0 **** 0.06
19365 H 102.1341782836913 4.045551129905391 50.72161922648277 H 0.0 **** 0.06
19366 C 63.860166206016345 51.98555066969824 8.259593195523436 C 0.0 **** -0.24
19367 H 63.047009187683116 52.337220486862336 8.895709253388475 H 0.0 **** 0.06
19368 H 63.95506562121652 50.90363192648149 8.356229281557546 H 0.0 **** 0.06
19369 H 64.79134504763402 52.46189909439404 8.56529020300799 H 0.0 **** 0.06
19370 H 63.64390625345453 52.24068065310778 7.222302559681452 H 0.0 **** 0.06
19371 C 37.43743339797669 8.045791594694023 108.87257591178775 C 0.0 **** -0.24
19372 H 38.18185337442873 8.57673028662633 108.27985041280323 H 0.0 **** 0.06
19373 H 37.7369895759098 8.0504087107184 109.92065383802117 H 0.0 **** 0.06
19374 H 37.359150231849924 7.017475806609795 108.52080482907297 H 0.0 **** 0.06
19375 H 36.47114336957662 8.54003584750069 108.767139622819 H 0.0 **** 0.06
19376 C 23.92370588587761 113.21690018683358 59.744732619158455 C 0.0 **** -0.24
19377 H 24.933153126453306 112.80763750344917 59.787357607677876 H 0.0 **** 0.06
19378 H 23.716286452144516 113.56441513051627 58.733270299008424 H 0.0 **** 0.06
19379 H 23.841500708319813 114.05139453543426 60.44063275998599 H 0.0 **** 0.06
19380 H 23.206672970369766 112.44266942599879 60.017545879760334 H 0.0 **** 0.06
19381 C 95.60527388156862 13.963076911949145 46.30274273997918 C 0.0 **** -0.24
19382 H 95.7223100367686 14.927517350428019 45.80719172577284 H 0.0 **** 0.06
19383 H 96.39113289059989 13.840899844397939 47.0494749881108 H 0.0 **** 0.06
19384 H 95.67869849844621 13.165554072165065 45.56393582851652 H 0.0 **** 0.06
19385 H 94.63059309318974 13.920810392393236 46.788089434066336 H 0.0 **** 0.06
19386 C 38.82356536486969 95.01309698720769 107.07579387104741 C 0.0 **** -0.24
19387 H 38.597566535251794 93.96343885012163 106.88775428778233 H 0.0 **** 0.06
19388 H 37.98473722950482 95.4772523010592 107.59502097965849 H 0.0 **** 0.06
19389 H 38.99354979712881 95.5242111423662 106.1286164217767 H 0.0 **** 0.06
19390 H 39.71891527643795 95.08604529541225 107.69341726197791 H 0.0 **** 0.06
19391 C 92.27505320125442 80.80862657108266 113.30739646706147 C 0.0 **** -0.24
19392 H 91.24992561858619 80.8119646249293 112.93646537821476 H 0.0 **** 0.06
19393 H 92.90341794609333 81.40295572036197 112.6434844199411 H 0.0 **** 0.06
19394 H 92.64488695042036 79.78366176366558 113.33869674560151 H 0.0 **** 0.06
19395 H 92.29890778472037 81.23462641581453 114.31000985137956 H 0.0 **** 0.06
19396 C 104.87627777980957 33.64918632552727 41.59363349836099 C 0.0 **** -0.24
19397 H 105.7248263266835 33.84642573506804 42.24952799581695 H 0.0 **** 0.06
19398 H 104.46779275118874 32.66362942340635 41.81619608789043 H 0.0 **** 0.06
19399 H 105.20607057448908 33.67962954903575 40.554871489156966 H 0.0 **** 0.06
19400 H 104.10973747840157 34.406060431697455 41.75400493437547 H 0.0 **** 0.06
19401 C 6.859107230325407 61.53576147034437 113.32467432901431 C 0.0 **** -0.24
19402 H 6.468672196286647 60.522367844732344 113.24082146251556 H 0.0 **** 0.06
19403 H 7.533700875187577 61.59589950796487 114.1783483580875 H 0.0 **** 0.06
19404 H 6.032550544124476 62.233843966132326 113.46453690423844 H 0.0 **** 0.06
19405 H 7.400889467660846 61.79353261393652 112.4140571420281 H 0.0 **** 0.06
19406 C 107.49114675284488 38.8558188985632 7.682242379820291 C 0.0 **** -0.24
19407 H 107.79062666647542 38.94061852107768 6.638122510974263 H 0.0 **** 0.06
19408 H 108.33357446521222 38.49668567809658 8.27343053688169 H 0.0 **** 0.06
19409 H 106.66247080219802 38.15394195707137 7.766908731051537 H 0.0 **** 0.06
19410 H 107.17859179757713 39.83324647125892 8.050754709434017 H 0.0 **** 0.06
19411 C 103.27734353552707 102.4372969253838 96.53224138341545 C 0.0 **** -0.24
19412 H 103.6633530839476 103.34758933200465 96.07372540329074 H 0.0 **** 0.06
19413 H 102.35847334647755 102.66442720535727 97.07288079314782 H 0.0 **** 0.06
19414 H 104.01774538008168 102.03864064332313 97.22710679274142 H 0.0 **** 0.06
19415 H 103.07219486277299 101.69938577122133 95.75781087999566 H 0.0 **** 0.06
19416 C 84.03330250187565 56.94089422690183 17.753848073304837 C 0.0 **** -0.24
19417 H 83.8772032689568 57.0472265812935 18.827598529918674 H 0.0 **** 0.06
19418 H 83.30802398396617 57.55589210390383 17.219271281716857 H 0.0 **** 0.06
19419 H 83.90380845130596 55.896666042677964 17.470494392663483 H 0.0 **** 0.06
19420 H 85.04204998129617 57.2647706643711 17.499907007679838 H 0.0 **** 0.06
19421 C 13.948772284394636 9.56406008416371 38.80477871987182 C 0.0 **** -0.24
19422 H 14.455832738253434 10.515078032307887 38.63900729574476 H 0.0 **** 0.06
19423 H 14.07682394259595 8.927461402537467 37.92884750598478 H 0.0 **** 0.06
19424 H 12.886190762971694 9.743203388508242 38.97198457912833 H 0.0 **** 0.06
19425 H 14.376705354420466 9.071206463957253 39.67814301398016 H 0.0 **** 0.06
19426 C 107.19516768065975 108.24780113158404 30.780700648783892 C 0.0 **** -0.24
19427 H 106.59987358963758 107.34184389525008 30.89913647706078 H 0.0 **** 0.06
19428 H 108.19021398096584 107.98413389755815 30.421269090123104 H 0.0 **** 0.06
19429 H 107.27731220734034 108.75685040107713 31.740709835009767 H 0.0 **** 0.06
19430 H 106.7113427102446 108.90788093240175 30.060668971450923 H 0.0 **** 0.06
19431 C 38.38161372517291 44.70652222732852 3.8307346889810105 C 0.0 **** -0.24
19432 H 39.305654270102366 45.12286892073712 3.4283889274923354 H 0.0 **** 0.06
19433 H 38.610593951597394 44.08677565783967 4.697812432459841 H 0.0 **** 0.06
19434 H 37.89452363685771 44.099364789025 3.0681406896542853 H 0.0 **** 0.06
19435 H 37.71704758144631 45.517250158240344 4.128926912602253 H 0.0 **** 0.06
19436 C 38.514587106831854 52.81098011521203 99.18289857339647 C 0.0 **** -0.24
19437 H 38.67860936308164 53.584056017077614 98.43233419119582 H 0.0 **** 0.06
19438 H 38.23065358220297 51.88062060529444 98.6903353490243 H 0.0 **** 0.06
19439 H 37.71690371547881 53.12321451184445 99.85690409351149 H 0.0 **** 0.06
19440 H 39.43103422129723 52.65628051304515 99.75123315812696 H 0.0 **** 0.06
19441 C 39.17514530582281 33.09633062290919 97.65547114175325 C 0.0 **** -0.24
19442 H 38.84153156430108 34.120720739220644 97.48895287787514 H 0.0 **** 0.06
19443 H 38.4280312140919 32.40356126873945 97.26739931276944 H 0.0 **** 0.06
19444 H 39.30835084090609 32.926733295282645 98.7242698261698 H 0.0 **** 0.06
19445 H 40.12266760399194 32.93430718839403 97.14126255019869 H 0.0 **** 0.06
19446 C 77.69365644317713 16.814904151883127 24.914877821595212 C 0.0 **** -0.24
19447 H 76.94699447492025 17.169764444557018 25.62531968065406 H 0.0 **** 0.06
19448 H 77.78528771881508 17.529057843134837 24.096329846523417 H 0.0 **** 0.06
19449 H 77.38765313550408 15.84664512145045 24.52010963970355 H 0.0 **** 0.06
19450 H 78.65470476324083 16.714051803416993 25.419162942978687 H 0.0 **** 0.06
19451 C 0.21856101839833286 80.48441110077722 77.63427139813575 C 0.0 **** -0.24
19452 H 0.5654121007645188 81.49281492437558 77.40641691354125 H 0.0 **** 0.06
19453 H -0.6172611848461269 80.23183685472603 76.98175775646567 H 0.0 **** 0.06
19454 H -0.10456797031918708 80.43812232512028 78.67450146414203 H 0.0 **** 0.06
19455 H 1.0318265416474866 79.77702072173304 77.47427591524936 H 0.0 **** 0.06
19456 C 107.70953508868999 44.08314834691265 87.59805321567598 C 0.0 **** -0.24
19457 H 107.01661148581942 44.56113163746602 88.29039518313925 H 0.0 **** 0.06
19458 H 107.87304364676466 43.04929596617558 87.90396794412715 H 0.0 **** 0.06
19459 H 108.65901773892887 44.618977647685085 87.60455274425149 H 0.0 **** 0.06
19460 H 107.28813155501008 44.10140710227586 86.59308842998436 H 0.0 **** 0.06
19461 C 56.562855035683455 53.92349803580697 27.631106804203796 C 0.0 **** -0.24
19462 H 56.551258371249716 54.80635362011877 28.271138953163984 H 0.0 **** 0.06
19463 H 56.88351721173302 54.2072415858298 26.62877057534314 H 0.0 **** 0.06
19464 H 55.561951613882705 53.49501804826251 27.58587675394608 H 0.0 **** 0.06
19465 H 57.256088706732 53.188176981913095 28.04043628027972 H 0.0 **** 0.06
19466 C 25.801154925536366 72.98440365488716 80.22075842523878 C 0.0 **** -0.24
19467 H 26.298109651328616 73.9377654873465 80.04387225568945 H 0.0 **** 0.06
19468 H 26.3674158603786 72.18520377300467 79.7417378639775 H 0.0 **** 0.06
19469 H 24.79457562631808 73.0163733016011 79.80464237300876 H 0.0 **** 0.06
19470 H 25.745227960068902 72.79719643998317 81.2933642330317 H 0.0 **** 0.06
19471 C 101.49139625443142 11.08402502501471 19.45413716441149 C 0.0 **** -0.24
19472 H 102.55529072601024 11.037134488392425 19.221273693628564 H 0.0 **** 0.06
19473 H 101.06645127651129 11.994609084554185 19.031237628057216 H 0.0 **** 0.06
19474 H 101.3573335725144 11.088869554487701 20.536139159488748 H 0.0 **** 0.06
19475 H 100.98816267583538 10.215648203593474 19.029698500307294 H 0.0 **** 0.06
19476 C 81.78313927932928 90.9663728129582 51.543196444578264 C 0.0 **** -0.24
19477 H 81.01640849173185 90.5941144773444 52.22321573046097 H 0.0 **** 0.06
19478 H 82.70530432518757 90.40418027169858 51.69294213788653 H 0.0 **** 0.06
19479 H 81.96298264783493 92.02254898408577 51.743038368666326 H 0.0 **** 0.06
19480 H 81.44595526315027 90.84351565685624 50.513880835782864 H 0.0 **** 0.06
19481 C 77.86015148547318 58.31602801641402 81.79317630351312 C 0.0 **** -0.24
19482 H 78.32127597216913 59.06070140845121 82.44220890593314 H 0.0 **** 0.06
19483 H 78.6356673843622 57.69442737352642 81.34502865316779 H 0.0 **** 0.06
19484 H 77.29662380353903 58.818129963297054 81.00693987234689 H 0.0 **** 0.06
19485 H 77.1868301560458 57.69127802790413 82.3798605288406 H 0.0 **** 0.06
19486 C 19.217318422903148 73.71248494295054 106.58939369140296 C 0.0 **** -0.24
19487 H 19.406553581854553 74.20732980740149 105.63723397652015 H 0.0 **** 0.06
19488 H 19.981751479151498 74.00730295369448 107.30932568892692 H 0.0 **** 0.06
19489 H 19.24577534354782 72.63188137294213 106.45029779433679 H 0.0 **** 0.06
19490 H 18.235943351755083 74.00470619242861 106.96238998840732 H 0.0 **** 0.06
19491 C 58.92633358562205 108.53216288447068 90.18588798527679 C 0.0 **** -0.24
19492 H 58.784810951461736 107.70805251105395 90.88540926023586 H 0.0 **** 0.06
19493 H 58.69976137708397 109.47462484604496 90.68430752053246 H 0.0 **** 0.06
19494 H 58.259768313354016 108.40170817979727 89.33245201714846 H 0.0 **** 0.06
19495 H 59.960861194629274 108.54210998547232 89.84080493597605 H 0.0 **** 0.06
19496 C 105.45243486289472 51.079455854526 47.16632650255991 C 0.0 **** -0.24
19497 H 105.85740235925925 52.05621832839681 46.899975226868776 H 0.0 **** 0.06
19498 H 104.36327208588686 51.127647263676764 47.171288051280214 H 0.0 **** 0.06
19499 H 105.80817656316276 50.79769125985041 48.15789756402904 H 0.0 **** 0.06
19500 H 105.781208780442 50.339279410009674 46.43749453148081 H 0.0 **** 0.06
19501 C 49.7867794653755 25.03461992323909 52.84747642047188 C 0.0 **** -0.24
19502 H 49.01413062066672 24.311080113558347 53.10828379047718 H 0.0 **** 0.06
19503 H 49.384904923942 26.044075451620145 52.94189049819984 H 0.0 **** 0.06
19504 H 50.10887014271313 24.865596144682627 51.82033569592086 H 0.0 **** 0.06
19505 H 50.63647683265661 24.91673783767257 53.520129202947864 H 0.0 **** 0.06
19506 C 55.08764362853401 86.3329209658407 3.3904578417928004 C 0.0 **** -0.24
19507 H 55.798740038294 85.62309051199078 2.9685346914901487 H 0.0 **** 0.06
19508 H 55.48393078267077 86.73261326336265 4.324388869934637 H 0.0 **** 0.06
19509 H 54.141630433031196 85.82785603990185 3.5850985314652775 H 0.0 **** 0.06
19510 H 54.925069614763515 87.14759684583295 2.6856185779814634 H 0.0 **** 0.06
19511 C 77.47835393176405 92.70333094394766 11.951663828699914 C 0.0 **** -0.24
19512 H 77.44312840021365 92.32760072821806 10.928790154123547 H 0.0 **** 0.06
19513 H 77.58887574598458 91.86780253784676 12.642432046060055 H 0.0 **** 0.06
19514 H 76.55465079065675 93.23842819274095 12.172880956897295 H 0.0 **** 0.06
19515 H 78.32531541259505 93.38043481837512 12.05938619595139 H 0.0 **** 0.06
19516 C 36.05308223012102 15.677723410206482 19.81881551512413 C 0.0 **** -0.24
19517 H 36.414387544032024 16.19322092811862 18.92945997102055 H 0.0 **** 0.06
19518 H 35.308025208758465 14.935230610647181 19.531022020073692 H 0.0 **** 0.06
19519 H 35.60180532332339 16.400219915891483 20.49930029924866 H 0.0 **** 0.06
19520 H 36.887151458076204 15.182498322781498 20.315537936912335 H 0.0 **** 0.06
19521 C 67.81601362070656 8.626159815092336 68.08167156348166 C 0.0 **** -0.24
19522 H 66.99102630425676 9.160657355605025 68.55196064976795 H 0.0 **** 0.06
19523 H 67.67340520945068 8.61563206256048 67.00098818051471 H 0.0 **** 0.06
19524 H 67.84460146636093 7.601651913569924 68.45477200064823 H 0.0 **** 0.06
19525 H 68.75495053182225 9.125160800693891 68.3205879164877 H 0.0 **** 0.06
19526 C 43.36770717167002 73.7436976262195 34.42014629971885 C 0.0 **** -0.24
19527 H 43.45977435133585 74.11359408404653 35.44198135268459 H 0.0 **** 0.06
19528 H 42.87019089375701 72.77387724888979 34.428545433465786 H 0.0 **** 0.06
19529 H 44.35979485444176 73.6408215424874 33.980916206414975 H 0.0 **** 0.06
19530 H 42.7809087785696 74.44848978878156 33.830145225124795 H 0.0 **** 0.06
19531 C 34.059013873081334 104.4125907678303 57.89681012027796 C 0.0 **** -0.24
19532 H 34.20611197633257 104.88820969534166 56.92714402413887 H 0.0 **** 0.06
19533 H 33.12459752167102 103.85068844200788 57.88688733269697 H 0.0 **** 0.06
19534 H 34.01588571263561 105.17598652788263 58.67364242482384 H 0.0 **** 0.06
19535 H 34.88911222696911 103.73457106530824 58.097552779163166 H 0.0 **** 0.06
19536 C 87.20746892602214 26.517995888989958 65.39694442558222 C 0.0 **** -0.24
19537 H 87.97133821293298 25.840546082528704 65.77883974681542 H 0.0 **** 0.06
19538 H 86.93539585668947 26.2233685236763 64.38253690681272 H 0.0 **** 0.06
19539 H 87.59714463914965 27.536635390442484 65.38729859450103 H 0.0 **** 0.06
19540 H 86.32733716824286 26.47209561361001 66.0382273592214 H 0.0 **** 0.06
19541 C 48.71545452671256 94.4139126490163 55.1727430449198 C 0.0 **** -0.24
19542 H 48.20833912393775 95.34081354387371 54.905802558764435 H 0.0 **** 0.06
19543 H 48.010868749676575 93.74219155080033 55.66409959449493 H 0.0 **** 0.06
19544 H 49.54123280922326 94.63338275492919 55.84947316199077 H 0.0 **** 0.06
19545 H 49.100986699561986 93.93851585669194 54.270461257190505 H 0.0 **** 0.06
19546 C 56.14020430865065 72.81364579786646 50.47316132275995 C 0.0 **** -0.24
19547 H 56.51743673859926 72.47462337574427 49.5080664692498 H 0.0 **** 0.06
19548 H 56.13035408985678 73.90403305418889 50.496013929753246 H 0.0 **** 0.06
19549 H 56.7872583203777 72.4399029266205 51.26683816923975 H 0.0 **** 0.06
19550 H 55.128415705282805 72.43756291598274 50.62093811073265 H 0.0 **** 0.06
19551 C 28.457899309746182 28.802017179586187 69.08527223093347 C 0.0 **** -0.24
19552 H 28.28182206806636 28.889163456646713 68.01335625614774 H 0.0 **** 0.06
19553 H 28.35573424165395 27.75960949985668 69.38621417659166 H 0.0 **** 0.06
19554 H 27.728846811554604 29.408920411620826 69.6237028857148 H 0.0 **** 0.06
19555 H 29.463295734335645 29.150800891463035 69.31827959090867 H 0.0 **** 0.06
19556 C 17.271961705941635 115.13745129574032 93.77203607719207 C 0.0 **** -0.24
19557 H 17.914030754594535 115.91208779029505 94.19134764885507 H 0.0 **** 0.06
19558 H 17.509296106597816 114.17965461962058 94.23527087099217 H 0.0 **** 0.06
19559 H 17.43608760829005 115.07262474290467 92.69669811840225 H 0.0 **** 0.06
19560 H 16.22892395962404 115.38719174538717 93.96612501061895 H 0.0 **** 0.06
19561 C 3.13568839572873 76.77452168858093 38.87528799164511 C 0.0 **** -0.24
19562 H 3.544936696722127 76.69144558634613 39.882711344007305 H 0.0 **** 0.06
19563 H 2.0469059116376176 76.78943864200193 38.92596094937265 H 0.0 **** 0.06
19564 H 3.460836661083089 75.92171489108875 38.27979181350034 H 0.0 **** 0.06
19565 H 3.490765046877444 77.69656182434949 38.414227090615015 H 0.0 **** 0.06
19566 C 58.792375227986255 20.979342704821974 37.66147033660625 C 0.0 **** -0.24
19567 H 59.29085463366381 20.72081452299517 38.59580487340245 H 0.0 **** 0.06
19568 H 58.21648463812471 21.894553429779023 37.79935768659733 H 0.0 **** 0.06
19569 H 58.12463609981462 20.169682470041664 37.37053357465405 H 0.0 **** 0.06
19570 H 59.5392178447196 21.13327675614508 36.882239947025234 H 0.0 **** 0.06
19571 C 24.313459966111765 7.519351609075311 26.002592558756618 C 0.0 **** -0.24
19572 H 25.068530650125126 7.5374771938022 25.216426989048216 H 0.0 **** 0.06
19573 H 24.089218282866995 6.484553997913066 26.265627250832864 H 0.0 **** 0.06
19574 H 23.406529482183828 8.008536022522552 25.64610229664231 H 0.0 **** 0.06
19575 H 24.689531277702713 8.044609638666557 26.87975836287717 H 0.0 **** 0.06
19576 C 22.531549447745476 32.116907303528876 56.66744857375383 C 0.0 **** -0.24
19577 H 21.811225423641588 32.47702302007656 55.93251826580851 H 0.0 **** 0.06
19578 H 22.978315735514656 31.189094771438562 56.31185713106757 H 0.0 **** 0.06
19579 H 22.024002223406 31.937650742875263 57.615579096403536 H 0.0 **** 0.06
19580 H 23.31046395587134 32.866284753828495 56.80801591071841 H 0.0 **** 0.06
19581 C 84.48585483715213 112.38738961890564 90.58692619620331 C 0.0 **** -0.24
19582 H 84.94536996140252 111.99462358817937 91.49342451178188 H 0.0 **** 0.06
19583 H 85.22531636355022 112.4145909338745 89.78624565834207 H 0.0 **** 0.06
19584 H 84.11637698806119 113.39618330275195 90.77429226518598 H 0.0 **** 0.06
19585 H 83.65470241413746 111.74504604738769 90.29252501910463 H 0.0 **** 0.06
19586 C 83.3036037161605 31.881728946246277 83.5167276923189 C 0.0 **** -0.24
19587 H 83.39756319419406 31.770226430135494 84.59674590358259 H 0.0 **** 0.06
19588 H 82.2507618369502 31.84577076020954 83.23717174081723 H 0.0 **** 0.06
19589 H 83.83976742471134 31.072765272564006 83.02085493818981 H 0.0 **** 0.06
19590 H 83.72828547737598 32.83912746549791 83.21258281081617 H 0.0 **** 0.06
19591 C 22.142663955498108 114.04952282265407 5.476320642363191 C 0.0 **** -0.24
19592 H 23.136402655944465 114.22161210471637 5.063121882885639 H 0.0 **** 0.06
19593 H 21.868397494382606 113.00295365626596 5.3410080995004705 H 0.0 **** 0.06
19594 H 21.421140397145393 114.68368902250555 4.961449274159861 H 0.0 **** 0.06
19595 H 22.145037944848838 114.29102015615788 6.538999770045621 H 0.0 **** 0.06
19596 C 114.40242717482828 56.17336981220784 31.850851019659927 C 0.0 **** -0.24
19597 H 115.13250459811046 56.89825571067175 31.490133717544637 H 0.0 **** 0.06
19598 H 114.12073839902027 55.505802138642764 31.037046164803527 H 0.0 **** 0.06
19599 H 113.51817387247094 56.698750065752535 32.21370818903716 H 0.0 **** 0.06
19600 H 114.83887148104937 55.59260166509482 32.66348456783125 H 0.0 **** 0.06
19601 C 45.26050668056083 2.690208087027429 6.326153455299906 C 0.0 **** -0.24
19602 H 44.40003789263723 2.172763469505952 5.901782043529938 H 0.0 **** 0.06
19603 H 45.11988161179896 2.8056792698550908 7.400570746110587 H 0.0 **** 0.06
19604 H 45.35659803306177 3.6731774730633333 5.863958422683952 H 0.0 **** 0.06
19605 H 46.16331183383839 2.1095397751101927 6.1365519643382065 H 0.0 **** 0.06
19606 C 103.54558241515993 32.19760546717458 74.21478718144145 C 0.0 **** -0.24
19607 H 102.76083636978262 32.18212032325647 73.4587955283499 H 0.0 **** 0.06
19608 H 104.02867324372409 31.221193913599464 74.25776754930621 H 0.0 **** 0.06
19609 H 103.10792973630733 32.430242690579675 75.18627968586924 H 0.0 **** 0.06
19610 H 104.28343453802249 32.95793211275429 73.95796192471768 H 0.0 **** 0.06
19611 C 31.599747654189002 71.0338299563815 36.576269499202176 C 0.0 **** -0.24
19612 H 32.00350827381129 71.69741849290942 35.811756480250615 H 0.0 **** 0.06
19613 H 31.474575844330502 70.03403800518494 36.159803822117546 H 0.0 **** 0.06
19614 H 30.633413136548427 71.41195119810801 36.91031814193855 H 0.0 **** 0.06
19615 H 32.28608957182581 70.9925623805678 37.42158498426507 H 0.0 **** 0.06
19616 C 113.45696716857057 91.99368075289742 103.12474900683878 C 0.0 **** -0.24
19617 H 112.4868852358072 92.33076904174371 102.75969411390997 H 0.0 **** 0.06
19618 H 113.5767604956928 92.29085460247455 104.16709917639253 H 0.0 **** 0.06
19619 H 114.24791894173822 92.44477588025798 102.52529504553877 H 0.0 **** 0.06
19620 H 113.51725923391653 90.90803979924958 103.0469920017606 H 0.0 **** 0.06
19621 C 39.11177747128568 37.153723194113 40.579917134464495 C 0.0 **** -0.24
19622 H 39.486414238980785 38.137811261215774 40.85968750988178 H 0.0 **** 0.06
19623 H 38.11729022876679 37.25281046978629 40.14470063889149 H 0.0 **** 0.06
19624 H 39.05938633557088 36.51955328042527 41.46571921538691 H 0.0 **** 0.06
19625 H 39.784905645115515 36.70328268703381 39.84995452758233 H 0.0 **** 0.06
19626 C 4.054741574317234 38.017176326811395 3.993080482563485 C 0.0 **** -0.24
19627 H 4.297534220356113 37.84475560549666 5.041957701712619 H 0.0 **** 0.06
19628 H 4.4836198836453605 37.22083859190552 3.385456325612026 H 0.0 **** 0.06
19629 H 4.465315553867015 38.97601606378595 3.6788196979366887 H 0.0 **** 0.06
19630 H 2.9719046380465386 38.026254055675835 3.8683114033076436 H 0.0 **** 0.06
19631 C 54.627654496823084 77.91107105814572 100.00357184979627 C 0.0 **** -0.24
19632 H 54.20016364945741 78.81914267333292 99.57710363920741 H 0.0 **** 0.06
19633 H 54.037690251106994 77.04974338968105 99.69090530576312 H 0.0 **** 0.06
19634 H 54.61839274753697 77.98288052450266 101.0922882102811 H 0.0 **** 0.06
19635 H 55.65472047149643 77.79504621250891 99.65633228058245 H 0.0 **** 0.06
19636 C 106.16241512427057 58.40601276552337 13.209432672696948 C 0.0 **** -0.24
19637 H 105.89812921675079 58.6461130297636 14.2393488747025 H 0.0 **** 0.06
19638 H 105.97823064691241 59.27419159807033 12.575936661036053 H 0.0 **** 0.06
19639 H 105.55682471386042 57.568105667896134 12.864890262288696 H 0.0 **** 0.06
19640 H 107.21706208879863 58.136727513236565 13.158769618014475 H 0.0 **** 0.06
19641 C 6.947108848683456 1.3926062444226375 19.647475959024177 C 0.0 **** -0.24
19642 H 7.0314395514702 1.306860319084402 20.730407384334853 H 0.0 **** 0.06
19643 H 7.807908329886999 0.9184882067485187 19.17699552635878 H 0.0 **** 0.06
19644 H 6.914461883345339 2.445931718635862 19.36837706026455 H 0.0 **** 0.06
19645 H 6.033411183182778 0.9004789431920894 19.314987132220892 H 0.0 **** 0.06
19646 C 15.54469485368071 60.0950677370396 55.873576526458805 C 0.0 **** -0.24
19647 H 16.312816689608127 60.78869338813497 55.53096613754974 H 0.0 **** 0.06
19648 H 14.980798401333999 59.726211535627215 55.016723297966905 H 0.0 **** 0.06
19649 H 14.871153573021587 60.6090332619961 56.55876123929545 H 0.0 **** 0.06
19650 H 16.01570943217928 59.25620316198524 56.387542611983406 H 0.0 **** 0.06
19651 C 96.0443172197538 31.359577701535017 25.729056358944774 C 0.0 **** -0.24
19652 H 97.10334434752045 31.5684653349399 25.87538464424904 H 0.0 **** 0.06
19653 H 95.79943631179617 31.44902185591789 24.670499954504095 H 0.0 **** 0.06
19654 H 95.45082645964612 32.073341146900134 26.300517665310338 H 0.0 **** 0.06
19655 H 95.82282934413342 30.34812391809018 26.068876736438767 H 0.0 **** 0.06
19656 C 46.72779624716213 54.498076706693595 76.2459494521554 C 0.0 **** -0.24
19657 H 46.214157770153214 53.71417532779709 76.80232673841435 H 0.0 **** 0.06
19658 H 47.63677775193168 54.09254256970533 75.80174652865115 H 0.0 **** 0.06
19659 H 46.98424948329958 55.31380599765814 76.921748241283 H 0.0 **** 0.06
19660 H 46.07370181868812 54.87189920329547 75.45713650169651 H 0.0 **** 0.06
19661 C 100.46085193709905 28.687504554682448 100.99931783801894 C 0.0 **** -0.24
19662 H 99.50736584186816 28.763337574384785 100.47608251310166 H 0.0 **** 0.06
19663 H 101.17712856034115 29.37592751239916 100.55078334907579 H 0.0 **** 0.06
19664 H 100.83770528880507 27.66733526986402 100.91988994047419 H 0.0 **** 0.06
19665 H 100.31921754770022 28.942622948257444 102.04932966393625 H 0.0 **** 0.06
19666 C 111.23023558923316 29.97363032191604 40.442766986822676 C 0.0 **** -0.24
19667 H 112.2736399850537 29.76692804162954 40.207788467150294 H 0.0 **** 0.06
19668 H 110.67826888468085 30.148546720044287 39.51919047476781 H 0.0 **** 0.06
19669 H 111.16882641658555 30.858435830897747 41.076827482371186 H 0.0 **** 0.06
19670 H 110.79982096869867 29.120078815997218 40.968015238333976 H 0.0 **** 0.06
19671 C 34.990231305058515 50.055614961492324 83.10495343337752 C 0.0 **** -0.24
19672 H 34.16498975536667 50.57805358999653 83.58992753442334 H 0.0 **** 0.06
19673 H 35.76887017353906 49.84626550032331 83.83941510796814 H 0.0 **** 0.06
19674 H 35.39800288052127 50.679374377022185 82.31073685337373 H 0.0 **** 0.06
19675 H 34.62815103396239 49.11838113526329 82.68289992965668 H 0.0 **** 0.06
19676 C 51.80959357417612 21.16040670306954 7.447189603948729 C 0.0 **** -0.24
19677 H 52.3995430075513 21.14170232535482 8.36324218683069 H 0.0 **** 0.06
19678 H 50.84482954094892 21.62505280640206 7.646076018830911 H 0.0 **** 0.06
19679 H 51.65632335956548 20.14061131020855 7.09396706787183 H 0.0 **** 0.06
19680 H 52.34046593975711 21.73323238920493 6.685889465887641 H 0.0 **** 0.06
19681 C 37.66989521285254 44.54086234194013 52.469259339610176 C 0.0 **** -0.24
19682 H 37.31278408285487 43.68203709996919 51.90075919886027 H 0.0 **** 0.06
19683 H 37.81897990216495 44.249755531361394 53.51001111110321 H 0.0 **** 0.06
19684 H 36.93404810919055 45.3431944537353 52.417290449734935 H 0.0 **** 0.06
19685 H 38.615355264073294 44.88575673911621 52.04938107186558 H 0.0 **** 0.06
19686 C 47.35157607038303 0.25148344650409626 104.54893202859637 C 0.0 **** -0.24
19687 H 48.08134844834825 0.933035969326653 104.98752872906303 H 0.0 **** 0.06
19688 H 46.39506921696585 0.7625031227304646 104.44352315671509 H 0.0 **** 0.06
19689 H 47.23121169095734 -0.616731729711546 105.1972254842471 H 0.0 **** 0.06
19690 H 47.701708718492284 -0.07266952895366785 103.5683196700868 H 0.0 **** 0.06
19691 C 85.61684001521245 104.95897565276414 66.15474559145576 C 0.0 **** -0.24
19692 H 85.80366180659765 105.09470126079586 67.21984779904594 H 0.0 **** 0.06
19693 H 84.5820204224285 104.65038649364493 66.0029636654773 H 0.0 **** 0.06
19694 H 86.28623002850196 104.19295654126103 65.76339372852931 H 0.0 **** 0.06
19695 H 85.79597489200133 105.8992475731778 65.63188705434533 H 0.0 **** 0.06
19696 C 58.27871742674574 78.38846052377995 89.22587144729397 C 0.0 **** -0.24
19697 H 57.261787878256996 78.23969964742838 89.58871857708772 H 0.0 **** 0.06
19698 H 58.77984672098913 77.42339726573026 89.14446536938172 H 0.0 **** 0.06
19699 H 58.82474070221167 79.0237208029651 89.92221290691094 H 0.0 **** 0.06
19700 H 58.248511601039695 78.86567630459372 88.24604376076809 H 0.0 **** 0.06
19701 C 85.39833013210774 65.18182940382778 60.47625503447395 C 0.0 **** -0.24
19702 H 85.6445037199619 64.35422718916837 59.8115696582704 H 0.0 **** 0.06
19703 H 84.3476575633597 65.11630588495188 60.76260708240366 H 0.0 **** 0.06
19704 H 85.57658259126333 66.1262625421503 59.961591366790174 H 0.0 **** 0.06
19705 H 86.0226243485061 65.1303886638907 61.36816989831968 H 0.0 **** 0.06
19706 C 34.54485683747299 104.61614575493411 70.9739183448603 C 0.0 **** -0.24
19707 H 34.31812840820436 104.2238966820239 71.96567863898258 H 0.0 **** 0.06
19708 H 35.62599262690176 104.66699525739591 70.84190194207622 H 0.0 **** 0.06
19709 H 34.11839829562737 105.61452477880766 70.87289343469405 H 0.0 **** 0.06
19710 H 34.11625856729498 103.95942296737758 70.21754727256211 H 0.0 **** 0.06
19711 C 110.44656846579063 39.27516638142346 53.23927050474924 C 0.0 **** -0.24
19712 H 110.34382032986935 38.72301146903362 54.17345909897472 H 0.0 **** 0.06
19713 H 110.2326981188864 38.61123253227254 52.40123893312034 H 0.0 **** 0.06
19714 H 111.46405904975217 39.65553000324532 53.15224781407585 H 0.0 **** 0.06
19715 H 109.74502910923245 40.10895238686828 53.23102769555618 H 0.0 **** 0.06
19716 C 8.057752655183911 19.168863066572904 75.13886655248957 C 0.0 **** -0.24
19717 H 7.516954543789211 18.291149364643452 75.49532372637094 H 0.0 **** 0.06
19718 H 7.606700173013271 19.521596466031987 74.21120692767855 H 0.0 **** 0.06
19719 H 9.100365135632586 18.904385099566408 74.95919117509666 H 0.0 **** 0.06
19720 H 8.007780754905976 19.9558087701834 75.89118085068289 H 0.0 **** 0.06
19721 C 75.56076462191109 89.14757195568669 88.89312106744774 C 0.0 **** -0.24
19722 H 75.79484339269067 89.44705787624433 87.87135940828244 H 0.0 **** 0.06
19723 H 75.98673919224234 88.16260547178646 89.08997475366618 H 0.0 **** 0.06
19724 H 74.47912499720863 89.10757455249068 89.02149738811164 H 0.0 **** 0.06
19725 H 75.98240948031332 89.87205332449498 89.58959424907437 H 0.0 **** 0.06
19726 C 16.321273153271083 114.90602685604568 101.87242141350768 C 0.0 **** -0.24
19727 H 16.169512706788712 113.89755446589709 102.25728471783611 H 0.0 **** 0.06
19728 H 17.116359089636603 115.39485359762119 102.43586382567219 H 0.0 **** 0.06
19729 H 15.398256422803861 115.47729732220219 101.97723931178552 H 0.0 **** 0.06
19730 H 16.60005767921088 114.85579995604932 100.81977094306984 H 0.0 **** 0.06
19731 C 113.91007691855114 16.090688526303012 49.01015409960604 C 0.0 **** -0.24
19732 H 114.05357888110662 15.274242011470193 49.71713342494624 H 0.0 **** 0.06
19733 H 112.85053177119515 16.33976923914267 48.95202983045745 H 0.0 **** 0.06
19734 H 114.26615109543194 15.785458716161116 48.02548787271617 H 0.0 **** 0.06
19735 H 114.47102563206505 16.96375643098429 49.3446172023219 H 0.0 **** 0.06
19736 C 103.01622222843645 49.78967493233323 38.097399617569494 C 0.0 **** -0.24
19737 H 103.96378583986275 49.2555061510488 38.031305443023626 H 0.0 **** 0.06
19738 H 103.19224781445911 50.794413598049196 38.4831506101167 H 0.0 **** 0.06
19739 H 102.34409375542839 49.255260006006544 38.76857510957621 H 0.0 **** 0.06
19740 H 102.56556216249788 49.85472508417971 37.107519581972646 H 0.0 **** 0.06
19741 C 4.883007826912305 99.7924510440401 18.39427986942195 C 0.0 **** -0.24
19742 H 4.623596901165243 98.92380093121677 17.79040453724241 H 0.0 **** 0.06
19743 H 4.922078312867953 99.50578349146599 19.444927162745046 H 0.0 **** 0.06
19744 H 4.128794903422246 100.5680546500327 18.25699719943509 H 0.0 **** 0.06
19745 H 5.85558460836765 100.17322357079786 18.083804113709505 H 0.0 **** 0.06
19746 C 97.88092653376421 23.86781247151592 65.39755069359836 C 0.0 **** -0.24
19747 H 96.8019702243325 23.740226577964876 65.3136719732247 H 0.0 **** 0.06
19748 H 98.28343647531486 23.122639686674887 66.08346308089966 H 0.0 **** 0.06
19749 H 98.10007203269612 24.866544327725933 65.77619238024471 H 0.0 **** 0.06
19750 H 98.3382417755011 23.743735413996006 64.4156900950922 H 0.0 **** 0.06
19751 C 30.856084249147898 61.209012141750065 68.51250222247046 C 0.0 **** -0.24
19752 H 29.766332607420566 61.190308186691155 68.52416722359615 H 0.0 **** 0.06
19753 H 31.197768844721622 62.056343136464235 67.91870231342526 H 0.0 **** 0.06
19754 H 31.230524890152765 60.28337369531566 68.07535667769304 H 0.0 **** 0.06
19755 H 31.22758799803512 61.30587324466393 69.53299596833747 H 0.0 **** 0.06
19756 C 94.28670398350187 100.01129878169763 10.745056177489005 C 0.0 **** -0.24
19757 H 94.0659946413428 99.47501073298577 11.667554971425943 H 0.0 **** 0.06
19758 H 93.35355153839956 100.31453283941767 10.269416373448905 H 0.0 **** 0.06
19759 H 94.8441547067331 99.36010123947108 10.071272795688344 H 0.0 **** 0.06
19760 H 94.88299074625249 100.89414483209094 10.972076907052212 H 0.0 **** 0.06
19761 C 25.918329953119013 10.602028262351809 5.602316703194049 C 0.0 **** -0.24
19762 H 26.58647547485259 10.12756266912023 6.320612242382225 H 0.0 **** 0.06
19763 H 26.088291031688797 11.679135861331382 5.6047784503905405 H 0.0 **** 0.06
19764 H 24.883965995548508 10.396459573444556 5.8771880365254106 H 0.0 **** 0.06
19765 H 26.115664238032934 10.205572970195913 4.606011041339968 H 0.0 **** 0.06
19766 C 31.780644182398362 8.961251171955382 33.579810555512324 C 0.0 **** -0.24
19767 H 30.97300609808765 9.378890624534279 32.978525619161644 H 0.0 **** 0.06
19768 H 32.42898158743884 9.766420815603809 33.92822140189361 H 0.0 **** 0.06
19769 H 32.3603748828037 8.263663081795087 32.97512820906536 H 0.0 **** 0.06
19770 H 31.36022328786042 8.43626273902521 34.43833955724921 H 0.0 **** 0.06
19771 C 10.113017335589973 45.522382862921035 107.24928286045395 C 0.0 **** -0.24
19772 H 10.922463299036679 45.493320798220026 107.97928712837046 H 0.0 **** 0.06
19773 H 9.171696369215226 45.276448993344744 107.74121369955674 H 0.0 **** 0.06
19774 H 10.311244785679264 44.79728909259404 106.45969215668299 H 0.0 **** 0.06
19775 H 10.049436743084584 46.52176785414842 106.81828781610665 H 0.0 **** 0.06
19776 C 83.15287894620755 97.89195479830363 70.5999257820082 C 0.0 **** -0.24
19777 H 82.30040537332414 98.3736543317298 71.07916052483779 H 0.0 **** 0.06
19778 H 83.44214527101926 97.0110905596543 71.17407716063656 H 0.0 **** 0.06
19779 H 83.98904193389728 98.5899080600582 70.55922874707773 H 0.0 **** 0.06
19780 H 82.88057332611206 97.59360794586968 69.5884124317696 H 0.0 **** 0.06
19781 C 76.11356967517331 46.685766653630424 16.859273851554462 C 0.0 **** -0.24
19782 H 76.87496092402927 47.36294528400373 17.247107652274053 H 0.0 **** 0.06
19783 H 75.51206203031253 46.30541486814158 17.6846177811222 H 0.0 **** 0.06
19784 H 76.59708073196305 45.85314224959117 16.3477015195688 H 0.0 **** 0.06
19785 H 75.47368396089509 47.22055717574011 16.15848940810767 H 0.0 **** 0.06
19786 C 7.554394940448628 26.691806436798686 35.63898489378592 C 0.0 **** -0.24
19787 H 6.966623245895178 26.59567904587209 34.72550825270349 H 0.0 **** 0.06
19788 H 8.59532208134674 26.447364748996876 35.42851049378373 H 0.0 **** 0.06
19789 H 7.164513498411305 26.009513238565958 36.39408553908326 H 0.0 **** 0.06
19790 H 7.4875545394642256 27.716321403960663 36.00623827568492 H 0.0 **** 0.06
19791 C 38.81539962045832 60.11660544638545 114.69884248687977 C 0.0 **** -0.24
19792 H 38.801842568147435 59.940153931293935 115.7744119300304 H 0.0 **** 0.06
19793 H 37.792512124676165 60.20208098654609 114.33163181599316 H 0.0 **** 0.06
19794 H 39.31228642951018 59.28397631403885 114.20143545891865 H 0.0 **** 0.06
19795 H 39.355774143857445 61.039575715740284 114.49011114463418 H 0.0 **** 0.06
19796 C 1.0495383690587232 54.92624220698241 51.4017748230832 C 0.0 **** -0.24
19797 H 0.7455201669134226 55.801992581238345 50.82892865203971 H 0.0 **** 0.06
19798 H 1.8378554379895036 54.397804948986064 50.86593921334409 H 0.0 **** 0.06
19799 H 0.1935566160398139 54.26433001052726 51.53379393478809 H 0.0 **** 0.06
19800 H 1.4200497405001897 55.23986072060991 52.37762127351161 H 0.0 **** 0.06
19801 C 83.38409532408724 62.43529231792877 36.83655501571969 C 0.0 **** -0.24
19802 H 83.9728447226868 61.56987409252376 37.144205979509415 H 0.0 **** 0.06
19803 H 83.75531280918946 63.325859624500254 37.343865586519705 H 0.0 **** 0.06
19804 H 82.33928371624587 62.27484331596247 37.100354771911356 H 0.0 **** 0.06
19805 H 83.4705175456302 62.56720324579939 35.757958117564584 H 0.0 **** 0.06
19806 C 73.13362338443562 88.80042780578302 57.8218785954179 C 0.0 **** -0.24
19807 H 72.14691087275457 88.68735559362496 58.27130674720004 H 0.0 **** 0.06
19808 H 73.8980412280813 88.64387056495352 58.5834373819809 H 0.0 **** 0.06
19809 H 73.23165764907236 89.80401685784734 57.409190098572026 H 0.0 **** 0.06
19810 H 73.25735738811454 88.06566408448015 57.02690836261502 H 0.0 **** 0.06
19811 C 92.94411140413249 23.647478709537737 29.195108680372698 C 0.0 **** -0.24
19812 H 93.65515966872188 22.97965731232918 28.708239570432767 H 0.0 **** 0.06
19813 H 92.52361560387406 24.330903127239466 28.456984750350472 H 0.0 **** 0.06
19814 H 93.45372450026335 24.21815710977232 29.970369999942875 H 0.0 **** 0.06
19815 H 92.14357709313333 23.05958540332321 29.643715200485957 H 0.0 **** 0.06
19816 C 73.86459343979263 0.5602039537865551 39.62973723820696 C 0.0 **** -0.24
19817 H 73.2079730143148 1.389804357534132 39.36888995960638 H 0.0 **** 0.06
19818 H 73.32918320778086 -0.13750738871064527 40.274735997081535 H 0.0 **** 0.06
19819 H 74.73949836486469 0.9423763142028463 40.15531424764477 H 0.0 **** 0.06
19820 H 74.18063609346686 0.04716284480895183 38.7219545757293 H 0.0 **** 0.06
19821 C 47.34991617346876 4.345444438490858 15.42105087938117 C 0.0 **** -0.24
19822 H 46.37608827656566 4.363085878147643 14.932938706936937 H 0.0 **** 0.06
19823 H 47.23321725114921 4.014281807692242 16.453446775326427 H 0.0 **** 0.06
19824 H 47.7816457791431 5.347002631359487 15.407472275559854 H 0.0 **** 0.06
19825 H 48.009383843328365 3.657951389869652 14.891465901245311 H 0.0 **** 0.06
19826 C 51.63691576539543 59.784518996487975 28.452348081190408 C 0.0 **** -0.24
19827 H 51.30983520805023 59.888230771007045 27.417451097063832 H 0.0 **** 0.06
19828 H 50.95059942894477 59.12701624952325 28.986077023726153 H 0.0 **** 0.06
19829 H 51.6477306055566 60.76401582137163 28.929511064845002 H 0.0 **** 0.06
19830 H 52.64027675489967 59.35825848383092 28.475311157995662 H 0.0 **** 0.06
19831 C 58.20540333036564 28.630049757489324 49.01549325042896 C 0.0 **** -0.24
19832 H 57.38241991187971 27.953261733730407 49.24536021733621 H 0.0 **** 0.06
19833 H 58.67816824995069 28.95406500534756 49.942054603977965 H 0.0 **** 0.06
19834 H 57.8218993092284 29.49826720770644 48.47866205373475 H 0.0 **** 0.06
19835 H 58.936617909409506 28.11350703016972 48.394669332743575 H 0.0 **** 0.06
19836 C 102.95640946353268 58.766514808490456 13.70573813653111 C 0.0 **** -0.24
19837 H 103.63748573586207 57.93443760319673 13.527131891721062 H 0.0 **** 0.06
19838 H 102.31247138073724 58.90137749130656 12.836156968176883 H 0.0 **** 0.06
19839 H 103.53214269402184 59.67651576708556 13.87598232128633 H 0.0 **** 0.06
19840 H 102.34498404688117 58.554135347561385 14.58236088287186 H 0.0 **** 0.06
19841 C 58.65420523551285 61.799640660882176 40.43181767866869 C 0.0 **** -0.24
19842 H 58.97767507803343 62.01243917893521 39.41242194510545 H 0.0 **** 0.06
19843 H 59.52620484299905 61.60494867285459 41.056320904662556 H 0.0 **** 0.06
19844 H 58.003746089892786 60.925679735665284 40.430988739181345 H 0.0 **** 0.06
19845 H 58.10988686132481 62.658124073873864 40.82563909322897 H 0.0 **** 0.06
19846 C 11.754555141036235 81.44282850468659 105.99313518178649 C 0.0 **** -0.24
19847 H 12.43373233318087 82.15724968943744 106.45802145744423 H 0.0 **** 0.06
19848 H 11.073604104165383 81.04709730998661 106.74630583337127 H 0.0 **** 0.06
19849 H 12.329750464060623 80.6261972380791 105.55746875319511 H 0.0 **** 0.06
19850 H 11.18265263741526 81.94240735110282 105.21085129080156 H 0.0 **** 0.06
19851 C 65.785496611646 98.4926249005803 68.97768282565204 C 0.0 **** -0.24
19852 H 66.04656154304904 97.47654832518612 68.6834958232788 H 0.0 **** 0.06
19853 H 65.79622189972618 99.13926149008924 68.0996978025396 H 0.0 **** 0.06
19854 H 66.50966663406638 98.85716506698276 69.70671632254056 H 0.0 **** 0.06
19855 H 64.78953636974262 98.4975247200631 69.42082135424897 H 0.0 **** 0.06
19856 C 6.99962935913287 107.16740937840515 13.178883124037327 C 0.0 **** -0.24
19857 H 6.2385927355733095 106.48240173530874 13.55284749356241 H 0.0 **** 0.06
19858 H 6.524346785938796 108.08467157279512 12.83083555050996 H 0.0 **** 0.06
19859 H 7.53513421238182 106.69852069157285 12.35333390773323 H 0.0 **** 0.06
19860 H 7.701629581995883 107.40254110825954 13.979671724095311 H 0.0 **** 0.06
19861 C 56.02838951098931 61.641417422744496 54.69540445847106 C 0.0 **** -0.24
19862 H 55.03085964643884 61.97191091998366 54.98551097632706 H 0.0 **** 0.06
19863 H 55.956653922792874 61.00424112143736 53.81356209194138 H 0.0 **** 0.06
19864 H 56.47669019931274 61.08054089163792 55.514644645889724 H 0.0 **** 0.06
19865 H 56.64659651059735 62.510007409197925 54.46732305567115 H 0.0 **** 0.06
19866 C 67.92606705581241 77.77781710069706 71.03553748257315 C 0.0 **** -0.24
19867 H 67.45886840949939 76.94960819025317 70.50267353906293 H 0.0 **** 0.06
19868 H 67.38334232507725 78.6988236926328 70.8215951884115 H 0.0 **** 0.06
19869 H 68.96146217050658 77.88079145340726 70.70909015678387 H 0.0 **** 0.06
19870 H 67.90056838883002 77.58019996940243 72.10718007343883 H 0.0 **** 0.06
19871 C 30.61247683451907 69.23248412322721 10.433077273280958 C 0.0 **** -0.24
19872 H 31.006615220270135 68.36050960731501 10.953742093688078 H 0.0 **** 0.06
19873 H 30.78274445767181 69.12344533502318 9.361050618710735 H 0.0 **** 0.06
19874 H 31.117900946375613 70.12967707942988 10.792409851418569 H 0.0 **** 0.06
19875 H 29.542266910865294 69.3165366322558 10.623764156517893 H 0.0 **** 0.06
19876 C 36.09398177766517 42.32829694498378 18.795439338166243 C 0.0 **** -0.24
19877 H 36.988437432158165 42.17135495327824 19.399061654610612 H 0.0 **** 0.06
19878 H 36.12136851416031 41.66957861959406 17.92765614742625 H 0.0 **** 0.06
19879 H 36.05740820821511 43.36570318300733 18.463951499146386 H 0.0 **** 0.06
19880 H 35.20967905720838 42.106444143683234 19.39392631451456 H 0.0 **** 0.06
19881 C 69.43875765718356 7.950201529602623 64.80447407759337 C 0.0 **** -0.24
19882 H 68.49228641367233 7.628672410742098 64.36993091498151 H 0.0 **** 0.06
19883 H 69.72699505088853 7.262292215220015 65.5998014167663 H 0.0 **** 0.06
19884 H 69.32753447143088 8.953997247696492 65.21430099699433 H 0.0 **** 0.06
19885 H 70.20879623288054 7.956103463506395 64.03260015526592 H 0.0 **** 0.06
19886 C 76.04758947507764 20.314112580379845 105.24322467901726 C 0.0 **** -0.24
19887 H 76.2746832889232 21.29794489401743 104.8320264789666 H 0.0 **** 0.06
19888 H 75.03107260079275 20.311813725818954 105.63770377921333 H 0.0 **** 0.06
19889 H 76.74957702125909 20.0860881364097 106.04549390440364 H 0.0 **** 0.06
19890 H 76.13543438072998 19.562967766632728 104.45816779966223 H 0.0 **** 0.06
19891 C 44.77117301645214 45.12027688688639 55.41585543698153 C 0.0 **** -0.24
19892 H 44.87327869766625 46.03724082176669 54.83629951127148 H 0.0 **** 0.06
19893 H 45.73211418684036 44.86500489234248 55.863406410421646 H 0.0 **** 0.06
19894 H 44.44780888788483 44.310628167804026 54.761424262831326 H 0.0 **** 0.06
19895 H 44.031901167112196 45.268604254707185 56.20312457204875 H 0.0 **** 0.06
19896 C 100.89248490539143 55.873442593596415 6.753782220119206 C 0.0 **** -0.24
19897 H 100.92985582250816 56.91996001342088 6.4499445911995394 H 0.0 **** 0.06
19898 H 100.02172823283735 55.39647376435915 6.303496612569859 H 0.0 **** 0.06
19899 H 100.8205561790939 55.81245290919615 7.839706744277834 H 0.0 **** 0.06
19900 H 101.79840866341226 55.36675974088327 6.420927609079058 H 0.0 **** 0.06
19901 C 10.428612783373978 44.33121566133747 20.32063836762336 C 0.0 **** -0.24
19902 H 9.478555216689202 43.986754632979476 20.72778172442787 H 0.0 **** 0.06
19903 H 10.711335675749353 43.70260135978313 19.475990864970356 H 0.0 **** 0.06
19904 H 11.19734367263203 44.2731100799726 21.09099094686303 H 0.0 **** 0.06
19905 H 10.326895556738478 45.36438707132735 19.986398816859833 H 0.0 **** 0.06
19906 C 32.67655606580638 84.13932565355151 10.193678197412481 C 0.0 **** -0.24
19907 H 31.834812890530657 83.49041861513656 10.436819457089626 H 0.0 **** 0.06
19908 H 33.53056088971198 83.87449394050547 10.817390069922226 H 0.0 **** 0.06
19909 H 32.399625820955464 85.1772623861357 10.377031695937688 H 0.0 **** 0.06
19910 H 32.940621502998624 84.0129899590725 9.143213370837316 H 0.0 **** 0.06
19911 C 109.99236143202027 115.52506985740584 113.04898360152089 C 0.0 **** -0.24
19912 H 109.02872135967782 115.03599990336517 113.1928653842294 H 0.0 **** 0.06
19913 H 110.37972576790754 115.85306530977257 114.01402632401303 H 0.0 **** 0.06
19914 H 109.86707768121092 116.38737622779252 112.39472584260898 H 0.0 **** 0.06
19915 H 110.69175587768467 114.82342025746357 112.59538383070569 H 0.0 **** 0.06
19916 C 81.91009869468024 52.18904527790857 51.244447867839824 C 0.0 **** -0.24
19917 H 82.41412875648967 51.80886338622824 50.3559446457777 H 0.0 **** 0.06
19918 H 80.84174105952889 51.98985012866551 51.16835753195619 H 0.0 **** 0.06
19919 H 82.07583704534909 53.263900143874146 51.32326043679245 H 0.0 **** 0.06
19920 H 82.31174169045863 51.694489905844236 52.12932101554355 H 0.0 **** 0.06
19921 C 99.5129155738203 93.802912183969 78.80198030316987 C 0.0 **** -0.24
19922 H 99.97531271812781 94.71895979366266 78.43605798788747 H 0.0 **** 0.06
19923 H 98.52212886008746 94.02893533372306 79.19679773887407 H 0.0 **** 0.06
19924 H 100.13033867981393 93.37534431824238 79.5916523581191 H 0.0 **** 0.06
19925 H 99.42388203725201 93.08840929024801 77.98341312779885 H 0.0 **** 0.06
19926 C 74.24110115593449 99.11065389842095 62.186398564436615 C 0.0 **** -0.24
19927 H 73.97570720628022 98.81763657473539 63.201969551356 H 0.0 **** 0.06
19928 H 73.89468749486143 100.12637550006556 61.999680408925315 H 0.0 **** 0.06
19929 H 73.77023968252995 98.4293307573842 61.47696437624694 H 0.0 **** 0.06
19930 H 75.32348202917484 99.06689511746282 62.067493812737325 H 0.0 **** 0.06
19931 C 75.82477497299516 55.04868882186088 37.13670493399573 C 0.0 **** -0.24
19932 H 76.36598699796383 54.99685176976888 38.08102478165955 H 0.0 **** 0.06
19933 H 75.26378132812545 55.98234765880568 37.089876625451524 H 0.0 **** 0.06
19934 H 75.13585314378935 54.20634261518248 37.06598580159854 H 0.0 **** 0.06
19935 H 76.53296434860306 55.008954388090245 36.30911473813154 H 0.0 **** 0.06
19936 C 14.597349189048682 90.90673070062371 57.591226062035076 C 0.0 **** -0.24
19937 H 15.197369849893978 91.7950177709339 57.39558660073092 H 0.0 **** 0.06
19938 H 15.09600432449016 90.28990941009658 58.340509883318035 H 0.0 **** 0.06
19939 H 14.481307054242077 90.3364541941786 56.669022428177726 H 0.0 **** 0.06
19940 H 13.615939399574554 91.20467339203395 57.96065068133727 H 0.0 **** 0.06
19941 C 59.527873908873445 58.90551057825208 99.59838985933919 C 0.0 **** -0.24
19942 H 58.710865429395 58.34663361977998 100.05488876575379 H 0.0 **** 0.06
19943 H 59.28730959305517 59.96946110331834 99.60356149871635 H 0.0 **** 0.06
19944 H 59.66811129161226 58.569215923677106 98.5711372465054 H 0.0 **** 0.06
19945 H 60.44392480188118 58.736469669565025 100.16450247420693 H 0.0 **** 0.06
19946 C 111.52816709162101 44.20838642446793 53.02570781553595 C 0.0 **** -0.24
19947 H 110.62803753183678 44.14457525074164 53.636971633445654 H 0.0 **** 0.06
19948 H 111.24789061586102 44.26504730290179 51.97337172036842 H 0.0 **** 0.06
19949 H 112.1437374148532 43.32494987244422 53.19216361302966 H 0.0 **** 0.06
19950 H 112.09071376422185 45.100909745298026 53.30021999147033 H 0.0 **** 0.06
19951 C 52.39223399801119 38.7160943908479 79.09202592771561 C 0.0 **** -0.24
19952 H 53.45355495744883 38.91190882177045 78.93941177345687 H 0.0 **** 0.06
19953 H 52.193337624791525 37.65534034342568 78.93952139388347 H 0.0 **** 0.06
19954 H 51.80911240989599 39.3016670191891 78.3815342366666 H 0.0 **** 0.06
19955 H 52.11381944131438 38.995834212165846 80.10790412053217 H 0.0 **** 0.06
19956 C 43.66698052665424 18.691624732108792 32.905910769888735 C 0.0 **** -0.24
19957 H 43.9968397939507 19.57156783906106 33.45945537238654 H 0.0 **** 0.06
19958 H 44.52787761164552 18.214674083383755 32.43634618484836 H 0.0 **** 0.06
19959 H 42.953483238286196 18.991990890057593 32.13775231188741 H 0.0 **** 0.06
19960 H 43.19024117573224 17.99042345769756 33.58981342207079 H 0.0 **** 0.06
19961 C 67.64999922764213 32.040795027922485 100.0668569657048 C 0.0 **** -0.24
19962 H 68.13309968736064 31.10392262278829 100.34351843961421 H 0.0 **** 0.06
19963 H 66.67070463870652 31.831837341098208 99.63747102312938 H 0.0 **** 0.06
19964 H 68.26479850709467 32.56324880393781 99.33447905288983 H 0.0 **** 0.06
19965 H 67.5329171349498 32.663631246594164 100.95380025235202 H 0.0 **** 0.06
19966 C 111.0243676794723 46.298952996698176 21.312205111323692 C 0.0 **** -0.24
19967 H 111.09313084723073 47.13287210361625 22.012205268756077 H 0.0 **** 0.06
19968 H 112.00639344269217 46.1057352476256 20.88087132378368 H 0.0 **** 0.06
19969 H 110.31966332033043 46.54827597639098 20.51869242024688 H 0.0 **** 0.06
19970 H 110.67739365629426 45.410797135475605 21.840168878359464 H 0.0 **** 0.06
19971 C 90.35832192851201 84.02642846185887 7.558820047699072 C 0.0 **** -0.24
19972 H 90.58471849117454 83.64506257049322 6.56318447139779 H 0.0 **** 0.06
19973 H 89.49536901573273 84.6898143713555 7.505849022449468 H 0.0 **** 0.06
19974 H 91.2183628162397 84.5769273550676 7.941180140470294 H 0.0 **** 0.06
19975 H 90.13556847636416 83.19288811890347 8.224416706323495 H 0.0 **** 0.06
19976 C 53.64778423709521 17.307526975598705 79.68384378415266 C 0.0 **** -0.24
19977 H 54.71928829670176 17.155867226543776 79.81140116152744 H 0.0 **** 0.06
19978 H 53.355549544985536 18.246393556412272 80.15543900134224 H 0.0 **** 0.06
19979 H 53.10616615619861 16.48384385660404 80.14853562568902 H 0.0 **** 0.06
19980 H 53.40987372150411 17.344717842888215 78.62119194580555 H 0.0 **** 0.06
19981 C 89.8049280286001 35.94723631697798 65.34677179885549 C 0.0 **** -0.24
19982 H 89.76578322674447 34.85954375468879 65.40751008654503 H 0.0 **** 0.06
19983 H 90.82412969635061 36.28423057543995 65.53545241515735 H 0.0 **** 0.06
19984 H 89.1353620513537 36.37723729061048 66.09230326836578 H 0.0 **** 0.06
19985 H 89.49359820705564 36.26686498769152 64.35221420039484 H 0.0 **** 0.06
19986 C 96.74473188239932 72.03969985097326 114.52196191230945 C 0.0 **** -0.24
19987 H 95.71619582153158 72.3999284805862 114.51288231696168 H 0.0 **** 0.06
19988 H 97.01646607791369 71.74389261149673 115.53564342198479 H 0.0 **** 0.06
19989 H 97.41021549437738 72.83283152373942 114.18277729927155 H 0.0 **** 0.06
19990 H 96.83400632355506 71.18081184908786 113.856341853294 H 0.0 **** 0.06
19991 C 74.5486806867046 64.15384391127748 114.32432724559344 C 0.0 **** -0.24
19992 H 74.41548397078299 64.63584132189123 113.35564272378677 H 0.0 **** 0.06
19993 H 75.54216955987684 63.70655752582553 114.37255977440653 H 0.0 **** 0.06
19994 H 73.79426358029558 63.37826818679048 114.45150274357852 H 0.0 **** 0.06
19995 H 74.44567305815501 64.89590880684796 115.11644700214673 H 0.0 **** 0.06
19996 C 67.10636890510528 110.9517877633935 31.857988799960438 C 0.0 **** -0.24
19997 H 66.0862950830832 111.22429590603487 31.58752945769355 H 0.0 **** 0.06
19998 H 67.09166160136749 110.34743306903847 32.76545764325293 H 0.0 **** 0.06
19999 H 67.68894376054413 111.85650791435855 32.03270159105302 H 0.0 **** 0.06
20000 H 67.55672111854659 110.37987774833596 31.04754491300556 H 0.0 **** 0.06
20001 C 86.87465407483828 77.9425615711312 77.06516326851357 C 0.0 **** -0.24
20002 H 85.89333211992647 78.22250534635117 77.44891747052995 H 0.0 **** 0.06
20003 H 86.97118911491057 76.85743884294601 77.07329562570257 H 0.0 **** 0.06
20004 H 87.64874407550775 78.380990265212 77.69543823876512 H 0.0 **** 0.06
20005 H 86.98458171736854 78.31106154433081 76.04531414748035 H 0.0 **** 0.06
20006 C 101.21028379141697 71.7279499425374 2.6411190583880018 C 0.0 **** -0.24
20007 H 100.50522087010049 71.08146120812148 3.164508204512533 H 0.0 **** 0.06
20008 H 100.6661646740334 72.52923424361933 2.140328228615548 H 0.0 **** 0.06
20009 H 101.75902649549204 71.1427364537293 1.9020776072478718 H 0.0 **** 0.06
20010 H 101.91084607467917 72.15702856313948 3.357999535994397 H 0.0 **** 0.06
20011 C 20.28274248764569 4.109668138107551 96.51981187305381 C 0.0 **** -0.24
20012 H 19.910666104258326 5.077619688815474 96.85450198934006 H 0.0 **** 0.06
20013 H 20.14314387916147 4.019684510569661 95.44286030032157 H 0.0 **** 0.06
20014 H 19.73488857864487 3.315176704897482 97.02616747083641 H 0.0 **** 0.06
20015 H 21.343068252974035 4.027069098511703 96.75648922482947 H 0.0 **** 0.06
20016 C 74.83599663771041 95.53426583282899 67.226534892973 C 0.0 **** -0.24
20017 H 74.43076340814571 94.5259488414361 67.13126928466218 H 0.0 **** 0.06
20018 H 74.0818590229694 96.25905881714127 66.91875383371382 H 0.0 **** 0.06
20019 H 75.71675992790121 95.63290775034753 66.59244079786708 H 0.0 **** 0.06
20020 H 75.11409753981401 95.71630656716573 68.2649681620685 H 0.0 **** 0.06
20021 C 30.03319365964134 22.66424560541131 50.033738200365825 C 0.0 **** -0.24
20022 H 29.498855591142927 23.223028700006438 49.26571358598074 H 0.0 **** 0.06
20023 H 31.061225260885948 23.021615288896214 50.09392536646099 H 0.0 **** 0.06
20024 H 30.030133009277876 21.604582707973577 49.779734871430946 H 0.0 **** 0.06
20025 H 29.540742945786533 22.808099793898293 50.99633880166369 H 0.0 **** 0.06
20026 C 101.13231142320763 115.34685612947726 86.57689938574613 C 0.0 **** -0.24
20027 H 101.88122296519839 114.60741080711378 86.29258144160487 H 0.0 **** 0.06
20028 H 100.97724130037255 116.04270919633859 85.75246120603006 H 0.0 **** 0.06
20029 H 101.47774696563624 115.89281954758087 87.45497273347536 H 0.0 **** 0.06
20030 H 100.19435025526076 114.8423220473627 86.80919181340221 H 0.0 **** 0.06
20031 C 59.903092530954666 113.15375829607623 13.4450555426817 C 0.0 **** -0.24
20032 H 60.901567521731636 112.79928277986969 13.701069913274097 H 0.0 **** 0.06
20033 H 59.4502154637716 112.47325371233663 12.72376680234521 H 0.0 **** 0.06
20034 H 59.97156782903983 114.15144877665392 13.011675362281295 H 0.0 **** 0.06
20035 H 59.28979608894946 113.18931330722731 14.345255437073149 H 0.0 **** 0.06
20036 C 3.878988689433985 5.578543790407677 108.93802382941527 C 0.0 **** -0.24
20037 H 2.8509211753044177 5.231297968463043 109.0312652970458 H 0.0 **** 0.06
20038 H 4.250470678286783 5.881604258212226 109.91735783093752 H 0.0 **** 0.06
20039 H 3.915641367120683 6.429220308087114 108.25633938060821 H 0.0 **** 0.06
20040 H 4.499845778878109 4.773015033958137 108.54666412653997 H 0.0 **** 0.06
20041 C 16.191885502871475 25.221966238105473 79.49182737441264 C 0.0 **** -0.24
20042 H 15.711089151709892 26.06718645919897 79.98548136894173 H 0.0 **** 0.06
20043 H 15.585338247257198 24.904496689940927 78.6438538804126 H 0.0 **** 0.06
20044 H 16.28980225172417 24.397275118486505 80.19757903313726 H 0.0 **** 0.06
20045 H 17.179831880149887 25.51959054745604 79.14222301440785 H 0.0 **** 0.06
20046 C 58.897433499843515 49.38145387671398 113.7464254578264 C 0.0 **** -0.24
20047 H 59.39929358377502 48.44203777310963 113.98315214734498 H 0.0 **** 0.06
20048 H 58.07072631161351 49.188317795411706 113.06295254644417 H 0.0 **** 0.06
20049 H 59.606704731708916 50.06262305249146 113.27723000120105 H 0.0 **** 0.06
20050 H 58.514937367205704 49.82926772735959 114.66310531646369 H 0.0 **** 0.06
20051 C 37.06028481773039 58.41830990934557 49.27997015314042 C 0.0 **** -0.24
20052 H 36.665468907540244 59.2225942270469 48.65945611643416 H 0.0 **** 0.06
20053 H 37.123996630828046 58.75567744876906 50.315143365461445 H 0.0 **** 0.06
20054 H 38.05344262253281 58.14122495110087 48.92656945887035 H 0.0 **** 0.06
20055 H 36.39853909281419 57.555051470060334 49.219151209975585 H 0.0 **** 0.06
20056 C 98.22336753091429 112.87963798127542 96.01550236086452 C 0.0 **** -0.24
20057 H 98.08079061523267 113.65281862762927 96.77120079853314 H 0.0 **** 0.06
20058 H 97.7805006350128 111.94608532404763 96.36381824116566 H 0.0 **** 0.06
20059 H 99.28921763642126 112.73324976546462 95.84263664963032 H 0.0 **** 0.06
20060 H 97.74262861361092 113.18558075956041 95.08640836458139 H 0.0 **** 0.06
20061 C 103.24803480249543 94.14360450766719 65.26025981098422 C 0.0 **** -0.24
20062 H 103.30520446777287 94.48519929417486 64.22683774098641 H 0.0 **** 0.06
20063 H 104.22227911720158 93.76865812905604 65.57345905602574 H 0.0 **** 0.06
20064 H 102.5097857653418 93.34461952586787 65.33793855447982 H 0.0 **** 0.06
20065 H 102.95399917280741 94.97402891727035 65.90203850600804 H 0.0 **** 0.06
20066 C 80.17339006613926 12.785997538236813 10.059089738962484 C 0.0 **** -0.24
20067 H 80.81238204055035 13.459122884135638 10.62991460788055 H 0.0 **** 0.06
20068 H 79.13473205600513 13.103462386761151 10.154232752371087 H 0.0 **** 0.06
20069 H 80.28039956209845 11.770752262616242 10.442232795413332 H 0.0 **** 0.06
20070 H 80.4658487603799 12.80998335117377 9.008748738857577 H 0.0 **** 0.06
20071 C 47.4558869289028 76.52869968932546 52.076606883048896 C 0.0 **** -0.24
20072 H 48.084839591022245 76.81479132393012 51.23345701939766 H 0.0 **** 0.06
20073 H 46.52090587999632 77.08829514830221 52.038045819694304 H 0.0 **** 0.06
20074 H 47.9749710103778 76.7514149305783 53.0085109324495 H 0.0 **** 0.06
20075 H 47.24338159878015 75.46072098423645 52.02518179052103 H 0.0 **** 0.06
20076 C 99.04837418541314 92.83269114002891 48.03407623352638 C 0.0 **** -0.24
20077 H 98.96819779874545 93.5627092582747 48.83939470236032 H 0.0 **** 0.06
20078 H 99.61770227143742 91.97016507873832 48.38168510069386 H 0.0 **** 0.06
20079 H 99.555814371764 93.28503439501826 47.18312647922579 H 0.0 **** 0.06
20080 H 98.05030566935926 92.51236881150531 47.733705718090846 H 0.0 **** 0.06
20081 C 43.366256577062806 46.47586272579787 20.930716200994823 C 0.0 **** -0.24
20082 H 43.12838061204009 46.84729721453175 19.93415362078983 H 0.0 **** 0.06
20083 H 43.17607547587287 47.25886288852524 21.66509585398103 H 0.0 **** 0.06
20084 H 44.416748919253834 46.1877993480208 20.971050872582083 H 0.0 **** 0.06
20085 H 42.74253065784401 45.609618426415864 21.153712623921706 H 0.0 **** 0.06
20086 C 0.7690451484261871 111.25370164102007 84.03169171192235 C 0.0 **** -0.24
20087 H 0.7501776598123797 110.88209729530278 85.05588980988382 H 0.0 **** 0.06
20088 H -0.10454344308763552 111.88174364720612 83.85672379673271 H 0.0 **** 0.06
20089 H 0.7558098670279492 110.41161782309867 83.339385961914 H 0.0 **** 0.06
20090 H 1.6754090163026092 111.83975813132633 83.87415130917599 H 0.0 **** 0.06
20091 C 63.570267290381665 94.30413750971702 91.94295178736331 C 0.0 **** -0.24
20092 H 64.42374090794358 94.89095052783047 92.28158843990525 H 0.0 **** 0.06
20093 H 63.69836049180981 94.05233445964714 90.89017644928254 H 0.0 **** 0.06
20094 H 62.656973594038675 94.88465132569071 92.07025788567483 H 0.0 **** 0.06
20095 H 63.50411321318131 93.3881173312592 92.53029771976327 H 0.0 **** 0.06
20096 C 35.85311524075399 72.90574620490214 38.03044492316591 C 0.0 **** -0.24
20097 H 35.53377611040288 73.14775861519333 37.01672253924644 H 0.0 **** 0.06
20098 H 35.74003022285234 71.83512717641547 38.20067483354896 H 0.0 **** 0.06
20099 H 35.2413685767128 73.45572553154231 38.74493933384037 H 0.0 **** 0.06
20100 H 36.899508589172584 73.1855735042504 38.15686984520806 H 0.0 **** 0.06
20101 C 4.628253028720692 27.05715320592435 97.54820895948171 C 0.0 **** -0.24
20102 H 4.835549870407974 27.854375634852715 98.26260172070783 H 0.0 **** 0.06
20103 H 5.414628738949659 26.303885805123997 97.6066305517611 H 0.0 **** 0.06
20104 H 4.595373206314861 27.472029958075012 96.54098617919288 H 0.0 **** 0.06
20105 H 3.6674894013132757 26.599293540673443 97.78486560480712 H 0.0 **** 0.06
20106 C 23.30209435615336 23.202353387977467 59.28225466392382 C 0.0 **** -0.24
20107 H 23.141377743416683 23.4682421538011 60.326893774520514 H 0.0 **** 0.06
20108 H 24.287823726339866 22.74990595729645 59.170798283911964 H 0.0 **** 0.06
20109 H 23.24234628116642 24.098854369476328 58.66614376309016 H 0.0 **** 0.06
20110 H 22.53807672736184 22.492678720528318 58.96579384544448 H 0.0 **** 0.06
20111 C 112.82577932600756 97.283641046112 87.44698451631231 C 0.0 **** -0.24
20112 H 112.77408793531012 97.85478743095285 88.37419613709577 H 0.0 **** 0.06
20113 H 113.51150270007597 97.77578001704069 86.75602913404879 H 0.0 **** 0.06
20114 H 111.83345966467766 97.23125633157694 86.99804116113363 H 0.0 **** 0.06
20115 H 113.18319796276512 96.27637549512461 87.65984962835167 H 0.0 **** 0.06
20116 C 109.63593083101716 78.87056734906585 81.4483353343634 C 0.0 **** -0.24
20117 H 109.02364779681677 79.20631236941313 80.61218567956212 H 0.0 **** 0.06
20118 H 109.21780186516779 79.25025278422139 82.38035661471154 H 0.0 **** 0.06
20119 H 110.65294466945944 79.24332140625668 81.32668905611989 H 0.0 **** 0.06
20120 H 109.64973593666163 77.78025965543445 81.47353833719694 H 0.0 **** 0.06
20121 C 91.09198706915674 44.64175194634339 12.837301358481046 C 0.0 **** -0.24
20122 H 91.96999869455063 44.15288821969614 12.414406061278914 H 0.0 **** 0.06
20123 H 90.19209816878443 44.12582849679731 12.50098369424343 H 0.0 **** 0.06
20124 H 91.05990716679722 45.680569856683604 12.508339659559482 H 0.0 **** 0.06
20125 H 91.14576003423434 44.60601854646154 13.925735182544042 H 0.0 **** 0.06
20126 C 66.16995698131348 104.89817446488617 93.75279773926982 C 0.0 **** -0.24
20127 H 67.22241251460991 104.61927757961642 93.81305126478433 H 0.0 **** 0.06
20128 H 65.66478072195378 104.60906733485307 94.6749509956113 H 0.0 **** 0.06
20129 H 65.70720408077904 104.38812843880817 92.90835098710816 H 0.0 **** 0.06
20130 H 66.08822753969855 105.97596267563142 93.61629001323449 H 0.0 **** 0.06
20131 C 56.71186140451627 79.93009182563961 19.15939627376605 C 0.0 **** -0.24
20132 H 57.7253963355011 80.00996229844104 19.554025564545015 H 0.0 **** 0.06
20133 H 56.02292859903588 79.69510544024753 19.970338014324312 H 0.0 **** 0.06
20134 H 56.67547625503397 79.1396611280869 18.409721018572867 H 0.0 **** 0.06
20135 H 56.425650978788326 80.87743087225591 18.701838722658835 H 0.0 **** 0.06
20136 C 67.58580042996111 54.94916672766601 52.44519931369513 C 0.0 **** -0.24
20137 H 66.95991295287091 54.13557778881966 52.077361702962605 H 0.0 **** 0.06
20138 H 67.53120487441684 55.79074511414751 51.754536800442196 H 0.0 **** 0.06
20139 H 68.61793278261376 54.606340694348205 52.52081476682679 H 0.0 **** 0.06
20140 H 67.2340070293781 55.26208859123278 53.428643723288985 H 0.0 **** 0.06
20141 C 34.39820785798531 4.416709617860391 52.01778975991732 C 0.0 **** -0.24
20142 H 34.01369536180334 4.988825945462494 52.86130770386188 H 0.0 **** 0.06
20143 H 35.0365880712622 5.055434588489575 51.40628608444217 H 0.0 **** 0.06
20144 H 33.565167044841246 4.052972546475189 51.416249319683914 H 0.0 **** 0.06
20145 H 34.976785214420374 3.570084287985722 52.38576160784487 H 0.0 **** 0.06
20146 C 66.39899289638299 8.505157999428604 81.35606085836173 C 0.0 **** -0.24
20147 H 66.57089347434999 9.426800772821778 81.91183538991075 H 0.0 **** 0.06
20148 H 66.06765798088827 7.723566517079831 82.04094155975469 H 0.0 **** 0.06
20149 H 67.32423319731652 8.195703867508403 80.87016470701833 H 0.0 **** 0.06
20150 H 65.63144832579826 8.675028460802835 80.60043068342988 H 0.0 **** 0.06
20151 C 100.57223753929625 3.177528474261891 15.370284983230306 C 0.0 **** -0.24
20152 H 100.0437364749366 4.031724015211694 14.94721743753098 H 0.0 **** 0.06
20153 H 101.49534092534061 3.518882350865823 15.839815898653171 H 0.0 **** 0.06
20154 H 100.80799421859163 2.4670955096590887 14.57816610012253 H 0.0 **** 0.06
20155 H 99.94210114968492 2.6945012185771873 16.116705992056325 H 0.0 **** 0.06
20156 C 94.02540978904217 6.391996405314217 26.596267605111393 C 0.0 **** -0.24
20157 H 94.04442591460966 5.31239463033927 26.74365119081257 H 0.0 **** 0.06
20158 H 93.54847945199613 6.61965414706242 25.643451827475218 H 0.0 **** 0.06
20159 H 95.04551518583867 6.776617051807477 26.59468099766164 H 0.0 **** 0.06
20160 H 93.46254993320227 6.858514392899707 27.405914077771747 H 0.0 **** 0.06
20161 C 25.267820472674458 4.307236328196966 7.785593969908305 C 0.0 **** -0.24
20162 H 24.532715740962402 4.345824515721759 6.980948949638247 H 0.0 **** 0.06
20163 H 24.857948579211524 4.787715735341283 8.674290293044677 H 0.0 **** 0.06
20164 H 26.173246121143762 4.827825091413505 7.474966792949942 H 0.0 **** 0.06
20165 H 25.50454796366958 3.2669388803265544 8.010898033993342 H 0.0 **** 0.06
20166 C 39.087852556680104 4.052547833966997 71.35477909583642 C 0.0 **** -0.24
20167 H 39.43253831006808 3.0191036066684376 71.40705142859974 H 0.0 **** 0.06
20168 H 39.76858459415024 4.631237603162049 70.73074818713889 H 0.0 **** 0.06
20169 H 39.063208600156656 4.477483250701368 72.3589624476731 H 0.0 **** 0.06
20170 H 38.08668870982689 4.0801668759261815 70.92459227914958 H 0.0 **** 0.06
20171 C 5.370907640405562 76.82898157082046 101.43665851447861 C 0.0 **** -0.24
20172 H 5.579639619496135 75.82297195614636 101.07036182243445 H 0.0 **** 0.06
20173 H 4.353948232911932 76.86876844516428 101.82772009185499 H 0.0 **** 0.06
20174 H 5.475397699409072 77.54204190028881 100.61879522641374 H 0.0 **** 0.06
20175 H 6.075616248047595 77.07989764429774 102.22986182575778 H 0.0 **** 0.06
20176 C 75.75453880632729 37.68271981283184 77.1583055892122 C 0.0 **** -0.24
20177 H 74.94038087050279 38.101193980426814 77.74860778779203 H 0.0 **** 0.06
20178 H 76.70912181695176 37.9711444987672 77.60021408807535 H 0.0 **** 0.06
20179 H 75.69662372661391 38.06328616041346 76.13890791884864 H 0.0 **** 0.06
20180 H 75.67289032814439 36.59629806207212 77.14590379650764 H 0.0 **** 0.06
20181 C 22.83394342339011 75.58835912898556 64.94137409241786 C 0.0 **** -0.24
20182 H 23.794715954281585 75.09089254327961 65.07313024425093 H 0.0 **** 0.06
20183 H 22.67610058212891 76.29501565007857 65.75617146402116 H 0.0 **** 0.06
20184 H 22.03727592364754 74.8447714959953 64.94522810522113 H 0.0 **** 0.06
20185 H 22.829189455715365 76.1211059275637 63.99095747459785 H 0.0 **** 0.06
20186 C 0.9468368063754777 16.49349117973037 29.538322482935428 C 0.0 **** -0.24
20187 H 1.3466676070998567 17.506648262694 29.544765540151445 H 0.0 **** 0.06
20188 H 0.5441426607965649 16.26850852930238 28.549787256907564 H 0.0 **** 0.06
20189 H 0.1544595094978991 16.41080724053947 30.281473258628353 H 0.0 **** 0.06
20190 H 1.7424897879884238 15.786862992349228 29.775671439069242 H 0.0 **** 0.06
20191 C 74.70018187654227 8.114158090010733 75.46391176033632 C 0.0 **** -0.24
20192 H 74.46112829624406 8.108274459437965 76.52740615543178 H 0.0 **** 0.06
20193 H 74.37295599977367 7.177379660398174 75.01334553074521 H 0.0 **** 0.06
20194 H 75.77753082589186 8.222463490508773 75.33467634289391 H 0.0 **** 0.06
20195 H 74.19100405834604 8.948040933520218 74.98170137813774 H 0.0 **** 0.06
20196 C 114.82478564979736 110.46158255104444 17.724229957411495 C 0.0 **** -0.24
20197 H 114.74463244677932 109.78876608027204 18.577028829633235 H 0.0 **** 0.06
20198 H 115.4095347441306 109.9835926481198 16.93764063517918 H 0.0 **** 0.06
20199 H 115.31649095152488 111.38381506054391 18.033754832401712 H 0.0 **** 0.06
20200 H 113.82756325074917 110.69060788104414 17.3467786207936 H 0.0 **** 0.06
20201 C 15.883907852906162 105.48094259960038 107.56065754645635 C 0.0 **** -0.24
20202 H 15.88976826412366 106.1586126343189 106.70795863415253 H 0.0 **** 0.06
20203 H 16.644497409565275 105.79290633220262 108.2776155711281 H 0.0 **** 0.06
20204 H 16.09878009485587 104.46712274224328 107.22069746903016 H 0.0 **** 0.06
20205 H 14.903613827790906 105.50419319487821 108.03739188286275 H 0.0 **** 0.06
20206 C 0.5713406236403671 59.57164357135676 58.550197747450454 C 0.0 **** -0.24
20207 H -0.20718231381593455 60.17199442739428 59.019318578192554 H 0.0 **** 0.06
20208 H 0.6018472882481092 58.58662400504092 59.01795779175427 H 0.0 **** 0.06
20209 H 1.5356756646583847 60.06398937457914 58.675971736924 H 0.0 **** 0.06
20210 H 0.35556057635560023 59.46268120961628 57.48778366842345 H 0.0 **** 0.06
20211 C 23.092487799385765 9.434373452307256 89.71512866456801 C 0.0 **** -0.24
20212 H 23.71362623708046 9.556559639898765 88.82789131118096 H 0.0 **** 0.06
20213 H 23.646712515699846 9.76191002218377 90.5951584132453 H 0.0 **** 0.06
20214 H 22.8217635422983 8.383969813535856 89.82685236104503 H 0.0 **** 0.06
20215 H 22.187753413216058 10.034067365527832 89.6107423135785 H 0.0 **** 0.06
20216 C 77.75456658939791 71.50875937273807 99.22527077118491 C 0.0 **** -0.24
20217 H 76.92076968754738 71.09358551866299 99.79131135719086 H 0.0 **** 0.06
20218 H 77.40209636910242 72.34837072307269 98.62432384808022 H 0.0 **** 0.06
20219 H 78.16733565930667 70.74102337872928 98.57177201696405 H 0.0 **** 0.06
20220 H 78.52511242902534 71.85344765074888 99.91427048592656 H 0.0 **** 0.06
20221 C 59.0557494302102 80.63352487002766 15.460653484592228 C 0.0 **** -0.24
20222 H 58.12287829978635 80.39317546824046 15.97066345957191 H 0.0 **** 0.06
20223 H 59.09464524119244 81.7047253478245 15.261168535862936 H 0.0 **** 0.06
20224 H 59.105573019596875 80.08714948339386 14.519118001165452 H 0.0 **** 0.06
20225 H 59.897685590072655 80.35009182569115 16.091596999881176 H 0.0 **** 0.06
20226 C 97.62875056708643 79.41350955270642 102.95412435979782 C 0.0 **** -0.24
20227 H 97.84835466158879 78.64247431528725 103.69274284621366 H 0.0 **** 0.06
20228 H 98.36745575108279 80.21071784770965 103.03123523299428 H 0.0 **** 0.06
20229 H 96.63401332298011 79.81897896781066 103.13795553216309 H 0.0 **** 0.06
20230 H 97.66486730544779 78.97907947188423 101.95562820099246 H 0.0 **** 0.06
20231 C 98.9737850649941 41.44710553169078 0.004941660103938261 C 0.0 **** -0.24
20232 H 97.90143221943175 41.585474261830456 0.14158354112309723 H 0.0 **** 0.06
20233 H 99.47232987056861 42.416101562607395 0.04333922015855762 H 0.0 **** 0.06
20234 H 99.15857951587945 40.98184126776647 -0.9637552896346335 H 0.0 **** 0.06
20235 H 99.36129989694906 40.80636647273778 0.7963854106841382 H 0.0 **** 0.06
20236 C 19.323076006739484 44.213872124874115 17.39536414741401 C 0.0 **** -0.24
20237 H 19.008576494638916 45.24332790520896 17.56818901028983 H 0.0 **** 0.06
20238 H 20.155264538564907 44.201109066450954 16.69183313842458 H 0.0 **** 0.06
20239 H 18.489484712439776 43.644848006880494 16.98341915585717 H 0.0 **** 0.06
20240 H 19.636838639309047 43.766587795535656 18.338539259746977 H 0.0 **** 0.06
20241 C 67.02257642218166 58.93763208744832 15.437497536207744 C 0.0 **** -0.24
20242 H 66.61298531912524 59.93142357204539 15.616212738108715 H 0.0 **** 0.06
20243 H 67.4801050411902 58.56276844812169 16.3529675573554 H 0.0 **** 0.06
20244 H 67.77337923160877 58.990039547370145 14.649593287681427 H 0.0 **** 0.06
20245 H 66.22031166834148 58.26531930104727 15.13042679553108 H 0.0 **** 0.06
20246 C 59.66359660864225 84.50097924737807 109.15015583850492 C 0.0 **** -0.24
20247 H 60.11922964936156 84.04781444597258 108.2704941575037 H 0.0 **** 0.06
20248 H 58.58870174105388 84.59370916881714 108.99477327303805 H 0.0 **** 0.06
20249 H 60.09429025301989 85.48802968983541 109.31544015410515 H 0.0 **** 0.06
20250 H 59.851432498761426 83.87279509585082 110.02091751972362 H 0.0 **** 0.06
20251 C 84.33334324782902 4.196629872335578 48.79113258594634 C 0.0 **** -0.24
20252 H 83.83329139033265 3.6918014190908934 49.61759427147307 H 0.0 **** 0.06
20253 H 83.86024949987427 5.1629274813945045 48.61587049713633 H 0.0 **** 0.06
20254 H 84.25545716378952 3.585376819172936 47.89224216204235 H 0.0 **** 0.06
20255 H 85.38420894105889 4.347186670993793 49.039435888168725 H 0.0 **** 0.06
20256 C 22.744338549855996 92.42399736952189 85.4045374672821 C 0.0 **** -0.24
20257 H 22.790451685336848 91.88461315638483 86.35085656289574 H 0.0 **** 0.06
20258 H 23.368227343937008 91.91696238027328 84.66778112700395 H 0.0 **** 0.06
20259 H 23.10539869662236 93.44170950451445 85.54852032278751 H 0.0 **** 0.06
20260 H 21.713065490959735 92.45026654512998 85.05110370978798 H 0.0 **** 0.06
20261 C 64.80061061181446 55.41282353825335 35.53566093849187 C 0.0 **** -0.24
20262 H 64.4730332622173 55.031082892071936 36.5024249678018 H 0.0 **** 0.06
20263 H 65.69022323704812 56.02967640625462 35.671080999328325 H 0.0 **** 0.06
20264 H 64.0058273003793 56.01377864159588 35.0943220917807 H 0.0 **** 0.06
20265 H 65.03489703955476 54.578067986441 34.875771145329225 H 0.0 **** 0.06
20266 C 109.43001765379844 74.78334528850547 17.238285888552582 C 0.0 **** -0.24
20267 H 109.44924740008668 73.99380958073834 17.98989228035424 H 0.0 **** 0.06
20268 H 110.15751611708737 74.55988352060768 16.45851583991731 H 0.0 **** 0.06
20269 H 109.67953238061045 75.73597724524979 17.707186088194533 H 0.0 **** 0.06
20270 H 108.43330239245938 74.8441459270453 16.799913224173963 H 0.0 **** 0.06
20271 C 62.71459924892554 89.51710555775743 68.15058266686108 C 0.0 **** -0.24
20272 H 62.50068507862113 89.8601318835021 69.16332660147877 H 0.0 **** 0.06
20273 H 63.78671584376161 89.57926922714483 67.96546052055398 H 0.0 **** 0.06
20274 H 62.18452134247781 90.1471122971833 67.43570748685704 H 0.0 **** 0.06
20275 H 62.385187405251656 88.48433649910311 68.03969342443501 H 0.0 **** 0.06
20276 C 22.34558912907795 44.06200482304956 30.378720417938588 C 0.0 **** -0.24
20277 H 21.40191526022255 43.522965801753884 30.464511654564653 H 0.0 **** 0.06
20278 H 22.14522878951439 45.11390280463081 30.176307729379474 H 0.0 **** 0.06
20279 H 22.930669159845365 43.63992536008524 29.561702160988062 H 0.0 **** 0.06
20280 H 22.902483447668686 43.969406227397855 31.31079538066581 H 0.0 **** 0.06
20281 C 82.77675156901815 28.377766120252176 3.4849196820859163 C 0.0 **** -0.24
20282 H 83.01826205156148 28.48779444407549 2.427149821672316 H 0.0 **** 0.06
20283 H 81.79853984807961 28.816395702361604 3.681953876186512 H 0.0 **** 0.06
20284 H 83.53087332410279 28.88760323273155 4.083818677338286 H 0.0 **** 0.06
20285 H 82.75975975271164 27.319655977985178 3.7454647649545336 H 0.0 **** 0.06
20286 C 96.03157247937503 44.16461222107779 3.047214286419262 C 0.0 **** -0.24
20287 H 96.41616857431191 43.25612994373722 2.5839569756889205 H 0.0 **** 0.06
20288 H 96.13719203330207 44.999402176291426 2.354045607130047 H 0.0 **** 0.06
20289 H 96.59394250623698 44.374457500070264 3.9580323622343485 H 0.0 **** 0.06
20290 H 94.97874584076568 44.027807910086835 3.2944089725916115 H 0.0 **** 0.06
20291 C 54.286876693904446 2.9364781154935713 35.87647269077007 C 0.0 **** -0.24
20292 H 54.27219238258772 4.0169431309676185 35.730890013385704 H 0.0 **** 0.06
20293 H 53.304837680945525 2.5249554858596497 35.640402500333494 H 0.0 **** 0.06
20294 H 54.53607015071543 2.713450107152866 36.91401579633305 H 0.0 **** 0.06
20295 H 55.03471381431666 2.4920296719243282 35.21892205619372 H 0.0 **** 0.06
20296 C 17.484380296032498 83.26215891342677 56.96641861109998 C 0.0 **** -0.24
20297 H 16.50468346730466 83.73843607956846 57.00868866774249 H 0.0 **** 0.06
20298 H 17.62199436392487 82.8006737042929 55.988596888733525 H 0.0 **** 0.06
20299 H 17.552236461844018 82.50070669816813 57.742127001564256 H 0.0 **** 0.06
20300 H 18.25880664138637 84.01246639003368 57.12545028662021 H 0.0 **** 0.06
20301 C 49.57695656442928 81.30846481563786 4.648873016699639 C 0.0 **** -0.24
20302 H 49.96104291043309 80.86953800485301 3.7276762264400816 H 0.0 **** 0.06
20303 H 50.1229428404277 82.22578903982007 4.8685450298980015 H 0.0 **** 0.06
20304 H 49.706259509175425 80.60188360978873 5.468871990856229 H 0.0 **** 0.06
20305 H 48.51796157753165 81.53537169838214 4.528343338699926 H 0.0 **** 0.06
20306 C 3.297158155754534 98.8636579313094 67.31551630201244 C 0.0 **** -0.24
20307 H 3.699435145338814 97.91994352514504 66.94871685718175 H 0.0 **** 0.06
20308 H 3.0340165371835166 99.49959907667119 66.46972675681229 H 0.0 **** 0.06
20309 H 4.045922011416165 99.36366946134578 67.92838219912841 H 0.0 **** 0.06
20310 H 2.4073788084843493 98.67026653088855 67.91487099389457 H 0.0 **** 0.06
20311 C 71.90990938338919 32.89599838854673 1.7149848620097714 C 0.0 **** -0.24
20312 H 72.46769484258986 32.439807229689364 2.5325602636153235 H 0.0 **** 0.06
20313 H 71.08977912690618 33.48946136717717 2.120560598240587 H 0.0 **** 0.06
20314 H 71.50868854170187 32.11510250382776 1.0683458174449783 H 0.0 **** 0.06
20315 H 72.57379716623991 33.53991545207455 1.1371272246567656 H 0.0 **** 0.06
20316 C 87.41530962851537 29.150552191500893 69.04813951104305 C 0.0 **** -0.24
20317 H 88.0449467606251 28.5063071966088 68.43343137372162 H 0.0 **** 0.06
20318 H 87.83289055420398 30.157485726116846 69.06579198440002 H 0.0 **** 0.06
20319 H 87.37482295508316 28.75541134137424 70.06315137675287 H 0.0 **** 0.06
20320 H 86.40931677018439 29.180750420122195 68.62957172464235 H 0.0 **** 0.06
20321 C 86.89584441104813 112.96077172204538 16.48220159754743 C 0.0 **** -0.24
20322 H 86.25836006103378 112.83799730197885 17.357876028294157 H 0.0 **** 0.06
20323 H 87.71353491146357 112.24133985480586 16.52407736129416 H 0.0 **** 0.06
20324 H 87.30196532102809 113.97260312315552 16.46734814835952 H 0.0 **** 0.06
20325 H 86.3089711383065 112.7926857326182 15.578927861084537 H 0.0 **** 0.06
20326 C 46.111830648851075 31.99379599950035 74.06863903756107 C 0.0 **** -0.24
20327 H 46.65084626207658 32.867786968076125 74.43576104827258 H 0.0 **** 0.06
20328 H 45.03894938624353 32.18779089360461 74.10499066905231 H 0.0 **** 0.06
20329 H 46.34661061737764 31.133159411306565 74.69456998852056 H 0.0 **** 0.06
20330 H 46.40977893972873 31.78865677006973 73.04058444431956 H 0.0 **** 0.06
20331 C 9.689335329611339 106.03355884537514 101.39952018281406 C 0.0 **** -0.24
20332 H 10.12313640645749 106.81264777771672 100.77331848268312 H 0.0 **** 0.06
20333 H 10.471240079894429 105.57781000343854 102.00647279457546 H 0.0 **** 0.06
20334 H 9.230445991368853 105.273335338055 100.76748114759381 H 0.0 **** 0.06
20335 H 8.931902356161345 106.47027710930561 102.05003841801158 H 0.0 **** 0.06
20336 C 2.435024725597515 7.8286373073705136 9.495014439606653 C 0.0 **** -0.24
20337 H 2.8975704637228556 8.766207400400788 9.80247871694074 H 0.0 **** 0.06
20338 H 3.207634558193501 7.128726752871444 9.177127978437362 H 0.0 **** 0.06
20339 H 1.7512066948807838 8.016215976174635 8.668048529608594 H 0.0 **** 0.06
20340 H 1.8824586278195028 7.404600741848981 10.334148111831006 H 0.0 **** 0.06
20341 C 74.79862926177346 0.15083093305479167 77.1827672404275 C 0.0 **** -0.24
20342 H 74.3051443172459 0.7350791340589495 76.40700688938414 H 0.0 **** 0.06
20343 H 75.26177263847082 -0.7293532705526502 76.73620306211808 H 0.0 **** 0.06
20344 H 74.06349413230024 -0.16143132831587081 77.92529417090365 H 0.0 **** 0.06
20345 H 75.56404412590895 0.7599374021791618 77.66403844394917 H 0.0 **** 0.06
20346 C 58.384825240136365 83.6610105162656 41.096810324135376 C 0.0 **** -0.24
20347 H 57.84191801324843 83.5239799842995 40.16148420715523 H 0.0 **** 0.06
20348 H 59.07801443039972 84.49659672379573 40.99523747686795 H 0.0 **** 0.06
20349 H 58.94181773034944 82.75214537456941 41.329181143257436 H 0.0 **** 0.06
20350 H 57.67831286616621 83.86937089858276 41.900065422477745 H 0.0 **** 0.06
20351 C 47.35706626740938 53.13871361399569 52.08935859432097 C 0.0 **** -0.24
20352 H 47.20687467323251 54.08562719298129 52.6079554662235 H 0.0 **** 0.06
20353 H 48.39173471166544 52.81722198798769 52.21386149620662 H 0.0 **** 0.06
20354 H 47.14115627798259 53.267074263626796 51.02937185265296 H 0.0 **** 0.06
20355 H 46.68954020846801 52.385786086717246 52.50772400916526 H 0.0 **** 0.06
20356 C 111.68276141511701 68.90286022938943 85.94979955938528 C 0.0 **** -0.24
20357 H 111.72789457638524 69.99085550013729 85.89496452407091 H 0.0 **** 0.06
20358 H 111.07135297584358 68.60758862654711 86.8028780972732 H 0.0 **** 0.06
20359 H 112.69016081010442 68.50368993030543 86.07009135947585 H 0.0 **** 0.06
20360 H 111.24273274000149 68.51051153080783 85.03279692140737 H 0.0 **** 0.06
20361 C 113.79880787288099 3.686245696480114 102.60552411597564 C 0.0 **** -0.24
20362 H 113.48512131782817 3.0201591174794657 101.80092853750425 H 0.0 **** 0.06
20363 H 114.5770165176451 4.35599341883983 102.23882549555451 H 0.0 **** 0.06
20364 H 114.18797023949435 3.095258279597715 103.43446263324668 H 0.0 **** 0.06
20365 H 112.94467125801344 4.271528414329055 102.94530685019366 H 0.0 **** 0.06
20366 C 115.34283854899232 4.342117193635588 46.194542353301074 C 0.0 **** -0.24
20367 H 114.44547244351406 3.7843042204645343 46.46187230214622 H 0.0 **** 0.06
20368 H 115.16244501014793 4.901482358842628 45.27602050015105 H 0.0 **** 0.06
20369 H 116.1694148740358 3.6482756501218603 46.04096158354736 H 0.0 **** 0.06
20370 H 115.5932394047995 5.0338514078845975 46.99827594733557 H 0.0 **** 0.06
20371 C 49.56668522984814 59.22062185703227 17.055046118361332 C 0.0 **** -0.24
20372 H 50.049286004708506 59.04741244141955 18.016545210305395 H 0.0 **** 0.06
20373 H 49.76855488962959 58.38085501502539 16.39019211988557 H 0.0 **** 0.06
20374 H 49.95935114594015 60.13671082484353 16.612898992570138 H 0.0 **** 0.06
20375 H 48.4907691005793 59.319380521344286 17.200451707160852 H 0.0 **** 0.06
20376 C 109.90637951887675 87.05660787033707 78.92705703008102 C 0.0 **** -0.24
20377 H 109.44974960291222 87.74926569446049 78.22067557167338 H 0.0 **** 0.06
20378 H 109.8534598308621 87.4756624283221 79.93233628921715 H 0.0 **** 0.06
20379 H 110.95001522616434 86.89571580796326 78.65562592478346 H 0.0 **** 0.06
20380 H 109.37364836505031 86.10610525197595 78.90062152247177 H 0.0 **** 0.06
20381 C 70.97269456301984 89.72463911910438 0.4045981047702014 C 0.0 **** -0.24
20382 H 70.13374057883851 89.8611394902483 -0.27800092331827386 H 0.0 **** 0.06
20383 H 71.52974746609723 90.65880229317558 0.4863713878199256 H 0.0 **** 0.06
20384 H 71.62838284046813 88.94234402963957 0.023026622307879663 H 0.0 **** 0.06
20385 H 70.5974013960988 89.43782069993203 1.3875695478580585 H 0.0 **** 0.06
20386 C 75.67975998841098 94.12247758621481 62.03347227158173 C 0.0 **** -0.24
20387 H 76.5881804531592 94.71651087997026 61.92892413813641 H 0.0 **** 0.06
20388 H 75.60717001237717 93.74541957239126 63.05362741022833 H 0.0 **** 0.06
20389 H 75.71232367153713 93.28466494829553 61.33659123825589 H 0.0 **** 0.06
20390 H 74.81215620086662 94.74510435700273 61.81327197421126 H 0.0 **** 0.06
20391 C 59.71750164951182 1.1342751763606316 37.447355914005584 C 0.0 **** -0.24
20392 H 59.57001674946994 2.1527061025823286 37.08817880046831 H 0.0 **** 0.06
20393 H 60.42855620496982 1.140671670535113 38.27366703988395 H 0.0 **** 0.06
20394 H 60.10663100150286 0.5167829983426486 36.63788244078535 H 0.0 **** 0.06
20395 H 58.765686355402266 0.7284930798633695 37.78879703412076 H 0.0 **** 0.06
20396 C 20.556733850704177 1.5686303612685446 20.8493832041232 C 0.0 **** -0.24
20397 H 19.718336093187645 1.4222026554989906 20.167965773887488 H 0.0 **** 0.06
20398 H 21.42108722226527 1.0132033988888054 20.484579522770417 H 0.0 **** 0.06
20399 H 20.284786371253205 1.2085847243371788 21.84192504073124 H 0.0 **** 0.06
20400 H 20.801122202134366 2.629341708504926 20.902054805305966 H 0.0 **** 0.06
20401 C 33.223509948513595 8.750173334243385 101.88132693253641 C 0.0 **** -0.24
20402 H 32.1801560870191 8.449221613402955 101.98215056589453 H 0.0 **** 0.06
20403 H 33.276846458397785 9.705195616920776 101.3575404526546 H 0.0 **** 0.06
20404 H 33.76599281475191 7.994309622119999 101.31406517380702 H 0.0 **** 0.06
20405 H 33.668944723958134 8.851930472398948 102.87078328935473 H 0.0 **** 0.06
20406 C 24.956371060919423 1.8587950426860402 109.45410939268396 C 0.0 **** -0.24
20407 H 24.728302575767657 1.1293929576244466 110.23065163832757 H 0.0 **** 0.06
20408 H 25.620181053035367 1.4078729768916958 108.71578141953114 H 0.0 **** 0.06
20409 H 25.444419579408077 2.7256810609138142 109.89986924413807 H 0.0 **** 0.06
20410 H 24.031321614960632 2.1727350062963637 108.96809508079963 H 0.0 **** 0.06
20411 C 28.15424527777111 26.138854960992774 102.93946636371147 C 0.0 **** -0.24
20412 H 27.730450888674284 25.36642176039811 103.5804841223137 H 0.0 **** 0.06
20413 H 28.194487426554872 27.08211545833069 103.4848266080793 H 0.0 **** 0.06
20414 H 27.53107806025544 26.257329581538386 102.0531780783274 H 0.0 **** 0.06
20415 H 29.161802320655994 25.850073894867364 102.63921165460653 H 0.0 **** 0.06
20416 C 51.53189421165919 85.27401177805106 77.01491326875811 C 0.0 **** -0.24
20417 H 50.76447133671559 85.80900543741943 76.45672119447403 H 0.0 **** 0.06
20418 H 51.061662152185335 84.5128500400506 77.63939650094869 H 0.0 **** 0.06
20419 H 52.07739284347688 85.97464590845178 77.64619097916204 H 0.0 **** 0.06
20420 H 52.222042610474155 84.79777004477803 76.31953892999417 H 0.0 **** 0.06
20421 C 21.450415276046726 64.23569229456531 64.70313541595357 C 0.0 **** -0.24
20422 H 21.654548027178606 63.203447974807816 64.9907169533808 H 0.0 **** 0.06
20423 H 21.86269905434017 64.91008158522511 65.45300051488118 H 0.0 **** 0.06
20424 H 20.373170413525003 64.38551445090818 64.63091780951564 H 0.0 **** 0.06
20425 H 21.911702861739457 64.4402945468021 63.73648486361998 H 0.0 **** 0.06
20426 C 58.278848625213186 55.70814159942667 51.58921290519129 C 0.0 **** -0.24
20427 H 58.635416714255825 55.07578930573984 52.401768922109 H 0.0 **** 0.06
20428 H 57.43941588625677 55.22128810336037 51.09156044196857 H 0.0 **** 0.06
20429 H 59.084832028858216 55.866188020843914 50.87131476353602 H 0.0 **** 0.06
20430 H 57.95677424487155 56.6691542853804 51.99023567855261 H 0.0 **** 0.06
20431 C 62.03304051763698 0.5819364016632278 75.2214797994544 C 0.0 **** -0.24
20432 H 61.05911193237526 1.0456639932723046 75.05804017681152 H 0.0 **** 0.06
20433 H 61.894264237536504 -0.45794216062646864 75.51766434821522 H 0.0 **** 0.06
20434 H 62.561688032198674 1.1178554658199875 76.0096974777041 H 0.0 **** 0.06
20435 H 62.61383550774951 0.6233164151480644 74.30031835975143 H 0.0 **** 0.06
20436 C 31.233032879321172 89.13071019104869 82.04840083111299 C 0.0 **** -0.24
20437 H 30.531055675684286 89.66777250763975 82.68791842002895 H 0.0 **** 0.06
20438 H 30.89277818984351 88.1026715944941 81.92002637075029 H 0.0 **** 0.06
20439 H 32.21986177093822 89.1316958050367 82.51218566089494 H 0.0 **** 0.06
20440 H 31.28712556124458 89.62079090875157 81.0761701797787 H 0.0 **** 0.06
20441 C 16.473383987361444 3.033205072834477 71.15030397403807 C 0.0 **** -0.24
20442 H 16.380924914579793 3.490266993841672 72.13563502874943 H 0.0 **** 0.06
20443 H 17.279381784762364 2.299428067433851 71.16470607460118 H 0.0 **** 0.06
20444 H 16.695747312755145 3.8044104419352607 70.41289948754384 H 0.0 **** 0.06
20445 H 15.53679472812118 2.540489744940629 70.8895172562822 H 0.0 **** 0.06
20446 C 98.84155503987967 31.542138622194415 3.3259238191740224 C 0.0 **** -0.24
20447 H 99.90153476513308 31.522336507880226 3.58078154003897 H 0.0 **** 0.06
20448 H 98.70600071765244 31.172245811882192 2.3088923688449086 H 0.0 **** 0.06
20449 H 98.47119940629386 32.565265466496925 3.3928397206025807 H 0.0 **** 0.06
20450 H 98.28882938096058 30.909288202962586 4.019819497589367 H 0.0 **** 0.06
20451 C 48.914858682094604 78.45727201464125 99.18120470613994 C 0.0 **** -0.24
20452 H 48.92358573857997 77.4008544799173 99.45060852451516 H 0.0 **** 0.06
20453 H 49.93877652001717 78.82218805638615 99.11231351444371 H 0.0 **** 0.06
20454 H 48.377285792181965 79.02146826204869 99.94370229354874 H 0.0 **** 0.06
20455 H 48.417893489655995 78.58267817443907 98.21953978919154 H 0.0 **** 0.06
20456 C 31.194088182806865 87.9155091501467 41.524766991627914 C 0.0 **** -0.24
20457 H 30.56857779632915 88.52404358158802 40.87194838265755 H 0.0 **** 0.06
20458 H 31.655837380077656 88.55040149015291 42.281970423984916 H 0.0 **** 0.06
20459 H 31.97117797389194 87.42996205026493 40.93526892601335 H 0.0 **** 0.06
20460 H 30.580201258096793 87.15742459195077 42.011789821384795 H 0.0 **** 0.06
20461 C 21.506222372661142 43.49120442120656 6.775062193227955 C 0.0 **** -0.24
20462 H 20.67777282479034 43.80653208303812 7.409801035413857 H 0.0 **** 0.06
20463 H 21.217378515414595 42.598358351913305 6.218222159541144 H 0.0 **** 0.06
20464 H 22.374337881991423 43.26738661446197 7.3955052914729915 H 0.0 **** 0.06
20465 H 21.755054075901768 44.29034787927674 6.076989090423522 H 0.0 **** 0.06
20466 C 16.253286824366143 69.89156146076022 32.397504082993066 C 0.0 **** -0.24
20467 H 16.06614604169434 69.00499836636357 33.00379097012379 H 0.0 **** 0.06
20468 H 16.400488827525038 70.7525979698193 33.049492776669894 H 0.0 **** 0.06
20469 H 15.399249284683151 70.07138752136882 31.744713145011303 H 0.0 **** 0.06
20470 H 17.146527852699478 69.73580037986409 31.79258797066774 H 0.0 **** 0.06
20471 C 22.170705250962804 22.05486963922891 19.227961431823672 C 0.0 **** -0.24
20472 H 22.528716763654984 23.070405914173875 19.059502618908795 H 0.0 **** 0.06
20473 H 22.14706960238288 21.851952945746177 20.298937510485047 H 0.0 **** 0.06
20474 H 22.842014663584393 21.347777106062466 18.738553122748385 H 0.0 **** 0.06
20475 H 21.16781014590653 21.94973061861731 18.815107095302977 H 0.0 **** 0.06
20476 C 4.215937867051711 20.79559086580457 43.86536765535908 C 0.0 **** -0.24
20477 H 3.2171756377071254 20.826332432564413 44.300248662577246 H 0.0 **** 0.06
20478 H 4.222677385876931 21.358847051571843 42.93178656824176 H 0.0 **** 0.06
20479 H 4.493535465914588 19.759909921316336 43.667382419955004 H 0.0 **** 0.06
20480 H 4.9297385426852145 21.236007635002693 44.561973178674066 H 0.0 **** 0.06
20481 C 27.76526478570517 12.021501115430215 99.92377812488968 C 0.0 **** -0.24
20482 H 27.432192444792207 12.784117396978019 100.62764513524701 H 0.0 **** 0.06
20483 H 27.99939902542644 11.10441243768311 100.46567862317528 H 0.0 **** 0.06
20484 H 28.65550333241876 12.372482689808997 99.4021683083347 H 0.0 **** 0.06
20485 H 26.973664943006654 11.824858205311653 99.20099614746067 H 0.0 **** 0.06
20486 C 8.239271445527265 92.895274364667 113.28868174412833 C 0.0 **** -0.24
20487 H 8.889033308531594 92.2610728082719 113.89211814186933 H 0.0 **** 0.06
20488 H 7.198951239553992 92.69983157486877 113.54899222429748 H 0.0 **** 0.06
20489 H 8.397454514562753 92.67704368823723 112.23225045139168 H 0.0 **** 0.06
20490 H 8.47304299375162 93.94228584849775 113.4819183269051 H 0.0 **** 0.06
20491 C 81.31465448135866 17.176377885211622 57.52216073256828 C 0.0 **** -0.24
20492 H 80.3049589486429 17.30853563933988 57.134255106614475 H 0.0 **** 0.06
20493 H 81.29842331918205 17.250042564589222 58.6096066510779 H 0.0 **** 0.06
20494 H 81.96428790960678 17.950016933622067 57.11373381962137 H 0.0 **** 0.06
20495 H 81.6894810224298 16.19489948063108 57.22971273917389 H 0.0 **** 0.06
20496 C 27.49448928681869 41.45306394833818 86.21209970033826 C 0.0 **** -0.24
20497 H 27.922450952097222 40.76030745734954 85.48683501315392 H 0.0 **** 0.06
20498 H 27.704253856423577 42.47713418800936 85.90241186792787 H 0.0 **** 0.06
20499 H 27.93558580386943 41.27183017483037 87.19182450298553 H 0.0 **** 0.06
20500 H 26.41674406501062 41.30254514364623 86.26541779905338 H 0.0 **** 0.06
20501 C 30.002708121816227 39.36618686640543 80.77852830177488 C 0.0 **** -0.24
20502 H 31.02454677467756 39.69812348680989 80.96128327658158 H 0.0 **** 0.06
20503 H 29.35056680596503 40.235246482449384 80.68589083238413 H 0.0 **** 0.06
20504 H 29.667653933294105 38.74611505406392 81.60968121303159 H 0.0 **** 0.06
20505 H 29.968532754233138 38.7868400459468 79.85544330831257 H 0.0 **** 0.06
20506 C 36.01612849830608 68.19571717183872 113.03759160482227 C 0.0 **** -0.24
20507 H 35.323202984151564 68.4614009041548 112.23835132751768 H 0.0 **** 0.06
20508 H 36.690182577151795 69.03117130701558 113.22486413669432 H 0.0 **** 0.06
20509 H 36.59443893652101 67.32080770770999 112.74007683363973 H 0.0 **** 0.06
20510 H 35.45557157371672 67.96922358879176 113.9443027602907 H 0.0 **** 0.06
20511 C 73.78814445793836 36.5470673100819 39.85771821593762 C 0.0 **** -0.24
20512 H 73.48645148009795 37.59381903350268 39.845362644468494 H 0.0 **** 0.06
20513 H 74.55602725210059 36.38109264270801 39.101088142467376 H 0.0 **** 0.06
20514 H 72.92434310931267 35.91781741093331 39.64411969621801 H 0.0 **** 0.06
20515 H 74.1863039817101 36.295678047924014 40.841598838893475 H 0.0 **** 0.06
20516 C 58.41128538427334 51.78574615719262 90.1211524213452 C 0.0 **** -0.24
20517 H 57.917460312611425 51.41763453920676 89.2220155167685 H 0.0 **** 0.06
20518 H 57.939766290886126 52.71521788927235 90.44009064483967 H 0.0 **** 0.06
20519 H 59.465260604764296 51.967454435134165 89.9072997233816 H 0.0 **** 0.06
20520 H 58.32414907015158 51.04212744697605 90.9139942030474 H 0.0 **** 0.06
20521 C 29.94793491846739 18.652151963372063 45.16894921010443 C 0.0 **** -0.24
20522 H 30.073541419015342 19.25272836059895 46.06970141597546 H 0.0 **** 0.06
20523 H 29.69720050869862 17.628321566924 45.44694767223943 H 0.0 **** 0.06
20524 H 30.87722930815511 18.656620637535184 44.597984580716144 H 0.0 **** 0.06
20525 H 29.146891078630425 19.07143689813725 44.56117178877727 H 0.0 **** 0.06
20526 C 55.17891531877016 88.29386731759831 40.87424796049095 C 0.0 **** -0.24
20527 H 56.129217275574305 88.43386970885535 41.38945090672678 H 0.0 **** 0.06
20528 H 54.47028512471845 89.05317642825418 41.207842900732714 H 0.0 **** 0.06
20529 H 54.78518646136086 87.3034932787823 41.10277455273342 H 0.0 **** 0.06
20530 H 55.33119756284174 88.38612292474625 39.79905097614335 H 0.0 **** 0.06
20531 C 65.94973926486861 46.76167921261032 100.79323150444958 C 0.0 **** -0.24
20532 H 66.15104361609218 45.87170791409761 101.38938600853533 H 0.0 **** 0.06
20533 H 66.89322683898125 47.2178455242709 100.49192584382183 H 0.0 **** 0.06
20534 H 65.37467633145114 47.473465099510236 101.38608314537885 H 0.0 **** 0.06
20535 H 65.38081742083348 46.48383218404712 99.90668458169685 H 0.0 **** 0.06
20536 C 76.6388287294115 18.902193686840235 50.323722862189015 C 0.0 **** -0.24
20537 H 76.74270284538437 19.055099560052156 51.39812806491358 H 0.0 **** 0.06
20538 H 75.78028275972156 18.258049053040793 50.13080285914384 H 0.0 **** 0.06
20539 H 77.5416075553282 18.432197674697136 49.935115570666255 H 0.0 **** 0.06
20540 H 76.48863348849522 19.86373667821465 49.83319967347546 H 0.0 **** 0.06
20541 C 49.650649441491396 83.46444854662536 62.77624580029324 C 0.0 **** -0.24
20542 H 49.80949819362405 82.39562795269666 62.92507879531135 H 0.0 **** 0.06
20543 H 48.58171491862112 83.66588880911462 62.70861931264618 H 0.0 **** 0.06
20544 H 50.14080149801754 83.77915726364 61.85505639174232 H 0.0 **** 0.06
20545 H 50.07244640482236 84.01378972599178 63.618765963609434 H 0.0 **** 0.06
20546 C 54.1456291964004 59.16611764489471 87.77344451350157 C 0.0 **** -0.24
20547 H 53.271797788359265 58.650671273519265 88.17238220362412 H 0.0 **** 0.06
20548 H 54.02251824005458 60.24233690669314 87.90164141598459 H 0.0 **** 0.06
20549 H 54.2496117078686 58.93618196062744 86.71259257818537 H 0.0 **** 0.06
20550 H 55.03679787454504 58.83574454953555 88.3059062374777 H 0.0 **** 0.06
20551 C 24.289533283983708 27.193685237006463 30.391201325088787 C 0.0 **** -0.24
20552 H 24.85087874387539 26.781330152057762 31.22908381145679 H 0.0 **** 0.06
20553 H 24.269866362859787 28.28098848222227 30.467833179949167 H 0.0 **** 0.06
20554 H 23.26914446931229 26.80991127971987 30.413310593462498 H 0.0 **** 0.06
20555 H 24.766108080503976 26.90279679774173 29.45574322313324 H 0.0 **** 0.06
20556 C 73.409500799478 113.90500292654079 22.21962623999559 C 0.0 **** -0.24
20557 H 73.60252780636262 112.8721091666241 22.50716151734406 H 0.0 **** 0.06
20558 H 74.34291997638655 114.37618578769559 21.91111541977648 H 0.0 **** 0.06
20559 H 72.99251646802901 114.44624495292065 23.068236059188735 H 0.0 **** 0.06
20560 H 72.70136428471903 113.92581415316862 21.391636453363674 H 0.0 **** 0.06
20561 C 55.82938872747991 105.80464060985969 20.73859913043492 C 0.0 **** -0.24
20562 H 56.77334351535899 105.59255846544661 21.241931176709386 H 0.0 **** 0.06
20563 H 56.029569457839386 106.28976839901873 19.782695203040248 H 0.0 **** 0.06
20564 H 55.22577660511209 106.46399620845027 21.362442992692593 H 0.0 **** 0.06
20565 H 55.291681990792455 104.8730117888895 20.568012938252366 H 0.0 **** 0.06
20566 C 108.73040549342853 100.96431408221764 112.65545476302688 C 0.0 **** -0.24
20567 H 109.19568362681557 100.92824646641515 111.67063197963819 H 0.0 **** 0.06
20568 H 107.82436015102337 100.35722790040575 112.65123121490532 H 0.0 **** 0.06
20569 H 108.47513009443874 101.99618812933329 112.89770051570736 H 0.0 **** 0.06
20570 H 109.42491581932863 100.57669938521809 113.40015050929728 H 0.0 **** 0.06
20571 C 10.49204984016626 30.295927914367326 67.91429768570056 C 0.0 **** -0.24
20572 H 11.498827974609924 30.569944719371108 67.5967536519023 H 0.0 **** 0.06
20573 H 10.116527009163207 29.493908415006388 67.27830246829424 H 0.0 **** 0.06
20574 H 9.836839747671718 31.163289010006167 67.83136373107033 H 0.0 **** 0.06
20575 H 10.517962759017735 29.95739010205557 68.9500690042583 H 0.0 **** 0.06
20576 C 40.38698500092059 63.27929252258521 0.7872369576110252 C 0.0 **** -0.24
20577 H 39.872587763849225 64.05241725320484 1.3591060502016798 H 0.0 **** 0.06
20578 H 41.44448494942861 63.27473326510898 1.053863477154703 H 0.0 **** 0.06
20579 H 40.28142620308756 63.484740612701444 -0.2779625405370778 H 0.0 **** 0.06
20580 H 39.95007661980503 62.30706519329475 1.0151264873209946 H 0.0 **** 0.06
20581 C 4.975303060622338 112.95807191392088 112.08343705937361 C 0.0 **** -0.24
20582 H 4.433844070054164 112.46058184879577 112.88804276939953 H 0.0 **** 0.06
20583 H 5.673792765056305 113.67919163120298 112.50802632506887 H 0.0 **** 0.06
20584 H 4.268443838021028 113.474034290422 111.43369063507023 H 0.0 **** 0.06
20585 H 5.526256913008183 112.21632322166361 111.50427616219312 H 0.0 **** 0.06
20586 C 105.83266307322162 42.9179423003575 33.6651749593413 C 0.0 **** -0.24
20587 H 104.87030851871651 42.432799055009035 33.83143185561505 H 0.0 **** 0.06
20588 H 105.72207795386765 43.69530054382828 32.90912492913054 H 0.0 **** 0.06
20589 H 106.55728745290486 42.17839346720952 33.322969401811065 H 0.0 **** 0.06
20590 H 106.18067165989942 43.3630943735836 34.59679138091673 H 0.0 **** 0.06
20591 C 67.16726375061887 98.40322372611621 65.82182827106416 C 0.0 **** -0.24
20592 H 67.84048027389733 99.11450519628048 66.30090004891673 H 0.0 **** 0.06
20593 H 67.05102278032726 97.52722071224196 66.46015759448639 H 0.0 **** 0.06
20594 H 67.58458855570291 98.10033601556614 64.86089504564538 H 0.0 **** 0.06
20595 H 66.19587844343772 98.87115638515684 65.66472920631816 H 0.0 **** 0.06
20596 C 43.757841506950626 81.50483509932883 103.20879224374839 C 0.0 **** -0.24
20597 H 42.77867943669497 81.64915478898632 103.66499285631654 H 0.0 **** 0.06
20598 H 43.64045826729341 81.00613162370001 102.24648533000942 H 0.0 **** 0.06
20599 H 44.37571621860411 80.89039614807615 103.86324479523861 H 0.0 **** 0.06
20600 H 44.23654021850018 82.47275778921846 103.06088094319763 H 0.0 **** 0.06
20601 C 96.99985499645936 28.655687454600482 90.11475491814963 C 0.0 **** -0.24
20602 H 96.58309006825152 28.66703289587869 89.10780168627997 H 0.0 **** 0.06
20603 H 96.24931001755431 29.00719663491236 90.8231179015956 H 0.0 **** 0.06
20604 H 97.87154516425608 29.309077321861338 90.15396586127753 H 0.0 **** 0.06
20605 H 97.29613886734853 27.63870952545828 90.37398913225087 H 0.0 **** 0.06
20606 C 20.606429252873596 61.98324474070347 97.20518557936292 C 0.0 **** -0.24
20607 H 21.639081282386684 62.19788244481592 97.48191116188099 H 0.0 **** 0.06
20608 H 20.54231072434692 60.97634061978805 96.79315349449494 H 0.0 **** 0.06
20609 H 20.272995089649115 62.70470915171535 96.45993645407572 H 0.0 **** 0.06
20610 H 19.97211871605542 62.05489440110955 98.0892993063235 H 0.0 **** 0.06
20611 C 41.60594459252388 28.617129398778417 97.49237958667413 C 0.0 **** -0.24
20612 H 42.422756748869574 27.91861192731632 97.31117310650524 H 0.0 **** 0.06
20613 H 41.576397628876464 29.356372166528118 96.69084184033588 H 0.0 **** 0.06
20614 H 41.76331120233584 29.120225720712682 98.44604795278167 H 0.0 **** 0.06
20615 H 40.66227464115741 28.072785090643237 97.51950559529952 H 0.0 **** 0.06
20616 C 36.36917010222651 44.022176715546266 12.953233030626222 C 0.0 **** -0.24
20617 H 35.404015554598054 44.208284294635604 13.42289476521853 H 0.0 **** 0.06
20618 H 36.98638060487061 43.4191261703553 13.619862493899461 H 0.0 **** 0.06
20619 H 36.86750807916312 44.972202132259554 12.75738720501377 H 0.0 **** 0.06
20620 H 36.220149023592896 43.489980855583894 12.014612369845935 H 0.0 **** 0.06
20621 C 41.563937180814975 51.99419013295839 115.80143270827182 C 0.0 **** -0.24
20622 H 41.00469523285217 52.91024321677084 115.99587251103655 H 0.0 **** 0.06
20623 H 42.34223183094562 52.19315005129413 115.06438524101505 H 0.0 **** 0.06
20624 H 40.88653525623735 51.230141773128224 115.41878882034426 H 0.0 **** 0.06
20625 H 42.02046325603993 51.64418862657958 116.72754958595687 H 0.0 **** 0.06
20626 C 30.926639477787575 61.0167976962307 88.45206321899855 C 0.0 **** -0.24
20627 H 30.744880189743043 61.98693374694511 87.98668991694255 H 0.0 **** 0.06
20628 H 30.06155731788394 60.735165595884666 89.05200466863893 H 0.0 **** 0.06
20629 H 31.808439418778306 61.08103360933222 89.08999989093138 H 0.0 **** 0.06
20630 H 31.09218884346734 60.268027318528226 87.67711166426376 H 0.0 **** 0.06
20631 C 27.50686926651332 26.841180929362707 111.46844183200989 C 0.0 **** -0.24
20632 H 27.50031781487474 26.992209333812895 112.54758455371179 H 0.0 **** 0.06
20633 H 27.86399902716331 25.83519216678343 111.24407026558094 H 0.0 **** 0.06
20634 H 28.166993607285477 27.572740290497904 111.00296865136728 H 0.0 **** 0.06
20635 H 26.495897660395528 26.963630372761116 111.07813275799255 H 0.0 **** 0.06
20636 C 49.235996650623605 102.5901392875182 94.04482232919551 C 0.0 **** -0.24
20637 H 50.087279084546964 103.18723607588174 93.71660404146077 H 0.0 **** 0.06
20638 H 48.628519014667475 103.17412884830992 94.73591034424938 H 0.0 **** 0.06
20639 H 49.595065432619805 101.69110540950373 94.54551408837837 H 0.0 **** 0.06
20640 H 48.63516964363879 102.30925508858337 93.17940418148194 H 0.0 **** 0.06
20641 C 89.0703479536545 51.229596394715344 2.8262809009982277 C 0.0 **** -0.24
20642 H 89.69858779279798 50.38940284169007 3.122583228576204 H 0.0 **** 0.06
20643 H 88.84749011147767 51.158398354723914 1.7609350106646104 H 0.0 **** 0.06
20644 H 89.59344934818569 52.16446642114613 3.0273493361410857 H 0.0 **** 0.06
20645 H 88.13990921443974 51.20513236189001 3.394709342427575 H 0.0 **** 0.06
20646 C 69.18569556611902 93.98533947462161 42.08897112618011 C 0.0 **** -0.24
20647 H 68.15935713833261 94.34202594469846 42.00777570837608 H 0.0 **** 0.06
20648 H 69.79164320233235 94.73464578554479 42.598120470904234 H 0.0 **** 0.06
20649 H 69.5884651800757 93.80716282231384 41.09231861583473 H 0.0 **** 0.06
20650 H 69.20269315882882 93.05561809427996 42.65866038731573 H 0.0 **** 0.06
20651 C 16.380595992210345 21.421485370983994 20.88096067955948 C 0.0 **** -0.24
20652 H 16.868887375487347 21.698050146003983 19.9466561309641 H 0.0 **** 0.06
20653 H 15.877174992480292 22.293148368332847 21.299470519307704 H 0.0 **** 0.06
20654 H 17.128243183917306 21.060080161217353 21.587262686578597 H 0.0 **** 0.06
20655 H 15.650440392081734 20.635301785197708 20.690338824383133 H 0.0 **** 0.06
20656 C 36.94940594680395 2.2418977681902135 10.412712423511238 C 0.0 **** -0.24
20657 H 36.4638540178795 2.0423898313860676 9.457409086683128 H 0.0 **** 0.06
20658 H 37.531469168686726 3.1609416543011175 10.338057570955442 H 0.0 **** 0.06
20659 H 37.61027574435502 1.412139501438963 10.663644465992292 H 0.0 **** 0.06
20660 H 36.19223809935474 2.352284211858912 11.188750577486104 H 0.0 **** 0.06
20661 C 75.46732985851816 70.13545946071088 97.59209251271864 C 0.0 **** -0.24
20662 H 75.86727320426536 71.05838683887407 97.17266563675213 H 0.0 **** 0.06
20663 H 74.62891484415462 69.79309219690936 96.98446553313693 H 0.0 **** 0.06
20664 H 75.12758414242592 70.31715234559208 98.61210777818411 H 0.0 **** 0.06
20665 H 76.2464268866346 69.37215420582062 97.60018900455239 H 0.0 **** 0.06
20666 C 26.45610794691106 105.38569959932587 58.419550502465654 C 0.0 **** -0.24
20667 H 27.233864067412753 105.87989260826052 59.0010255167922 H 0.0 **** 0.06
20668 H 26.332022243645042 104.36203280124427 58.77453028648057 H 0.0 **** 0.06
20669 H 26.741026516095417 105.3731586170175 57.36724554678432 H 0.0 **** 0.06
20670 H 25.516929730879127 105.92691188755008 58.535494925334746 H 0.0 **** 0.06
20671 C 103.5907558023714 61.28190413568791 92.07342482844604 C 0.0 **** -0.24
20672 H 103.67124304335165 61.92253996032869 91.19458686640621 H 0.0 **** 0.06
20673 H 104.52064142147053 61.32648611534975 92.64149683909591 H 0.0 **** 0.06
20674 H 103.40713814441537 60.25463123716611 91.75807181722968 H 0.0 **** 0.06
20675 H 102.76526209309884 61.62379998629916 92.6977043450567 H 0.0 **** 0.06
20676 C 59.96581845235747 56.82024666381648 33.47563879342374 C 0.0 **** -0.24
20677 H 59.96890332693407 56.383572703673394 32.47678850090044 H 0.0 **** 0.06
20678 H 60.76621324072403 56.37608651437421 34.06789847587544 H 0.0 **** 0.06
20679 H 59.00681764331118 56.625882493016604 33.95471551728876 H 0.0 **** 0.06
20680 H 60.12210324083789 57.89642058028835 33.400609956790106 H 0.0 **** 0.06
20681 C 23.914576840584296 23.237701104386684 103.29680511598536 C 0.0 **** -0.24
20682 H 23.588297133017928 22.88348559379143 104.27497203155917 H 0.0 **** 0.06
20683 H 24.963967724397776 22.98065008180192 103.14954293846685 H 0.0 **** 0.06
20684 H 23.79358117217132 24.319025348902883 103.24382019955203 H 0.0 **** 0.06
20685 H 23.3117337824704 22.765005137521445 102.52123285002023 H 0.0 **** 0.06
20686 C 91.14809770391543 48.64554550191474 94.27617700777921 C 0.0 **** -0.24
20687 H 91.56332573656249 48.47984627545676 95.26928218304602 H 0.0 **** 0.06
20688 H 90.30307124209008 47.97444676813643 94.11898482548611 H 0.0 **** 0.06
20689 H 91.91310247350725 48.44962982176778 93.52468960476102 H 0.0 **** 0.06
20690 H 90.81152185306286 49.678721431667384 94.1907970068618 H 0.0 **** 0.06
20691 C 60.750640738198456 31.861595065619518 110.6975650666063 C 0.0 **** -0.24
20692 H 60.69073549437486 32.281156940593824 111.70172677716124 H 0.0 **** 0.06
20693 H 61.78069852710976 31.57648476474749 110.48390502418684 H 0.0 **** 0.06
20694 H 60.421081157233274 32.60686204320998 109.97241248278272 H 0.0 **** 0.06
20695 H 60.10800872239537 30.983228969638226 110.63209990919668 H 0.0 **** 0.06
20696 C 23.568730216099866 67.56816376576944 13.05010270348538 C 0.0 **** -0.24
20697 H 23.67631925359822 68.2094732917758 13.925725526597503 H 0.0 **** 0.06
20698 H 23.773319916693843 66.53470156160625 13.331142781720388 H 0.0 **** 0.06
20699 H 24.272913200717838 67.88267101256349 12.280227365809651 H 0.0 **** 0.06
20700 H 22.551512445529124 67.64628626336406 12.666785057547685 H 0.0 **** 0.06
20701 C 73.30668258124766 14.718455023131781 54.699018300435625 C 0.0 **** -0.24
20702 H 73.95746375786126 14.730060596338319 55.57379299672226 H 0.0 **** 0.06
20703 H 73.87523035762217 15.020737691144603 53.81953028473902 H 0.0 **** 0.06
20704 H 72.47997108556359 15.412005614864512 54.85370588957136 H 0.0 **** 0.06
20705 H 72.9149843136689 13.712240521327487 54.55095621392843 H 0.0 **** 0.06
20706 C 70.91867773606639 5.419930929505824 32.986147815782715 C 0.0 **** -0.24
20707 H 70.44933796491574 4.47064473613608 32.72979180973306 H 0.0 **** 0.06
20708 H 71.26404238611836 5.386215859175138 34.019805471787265 H 0.0 **** 0.06
20709 H 70.19481913211334 6.22609994577769 32.869985208351125 H 0.0 **** 0.06
20710 H 71.76730825740728 5.596242339703309 32.32470234037197 H 0.0 **** 0.06
20711 C 46.83596118783609 26.811522844170497 28.12476855721534 C 0.0 **** -0.24
20712 H 46.220617013694465 27.22578856059664 27.32625430839846 H 0.0 **** 0.06
20713 H 46.20120191356588 26.27643154897038 28.831988181889486 H 0.0 **** 0.06
20714 H 47.35311892819112 27.620636903370098 28.641125896002663 H 0.0 **** 0.06
20715 H 47.56781589777336 26.124592922780835 27.700687814004 H 0.0 **** 0.06
20716 C 5.131243390558154 72.74342591102553 72.68304781362102 C 0.0 **** -0.24
20717 H 6.148948599439763 72.52237323843991 73.00281070374655 H 0.0 **** 0.06
20718 H 5.154610982010013 73.23340572132624 71.7093998667092 H 0.0 **** 0.06
20719 H 4.656862085458215 73.40121969512897 73.41061788683679 H 0.0 **** 0.06
20720 H 4.563326899542972 71.81548090529327 72.60932852631134 H 0.0 **** 0.06
20721 C 29.809200071567602 88.24158577743034 72.00544758611602 C 0.0 **** -0.24
20722 H 29.6403276193804 89.04835068779641 71.29193160829766 H 0.0 **** 0.06
20723 H 28.857983466287976 87.9331776126231 72.43774476899989 H 0.0 **** 0.06
20724 H 30.4735379185841 88.59027898258532 72.7968532301046 H 0.0 **** 0.06
20725 H 30.26767052439959 87.39508148966392 71.49318500703077 H 0.0 **** 0.06
20726 C 16.770514486072983 31.854777490111942 109.33967400086865 C 0.0 **** -0.24
20727 H 17.276659107895313 32.63861114244121 108.77626298205503 H 0.0 **** 0.06
20728 H 16.779132124286804 30.92990332189244 108.76305015867436 H 0.0 **** 0.06
20729 H 15.740041572706971 32.15368350355215 109.5319168896535 H 0.0 **** 0.06
20730 H 17.286197132340703 31.697810224992715 110.28702728075447 H 0.0 **** 0.06
20731 C 8.757913601130284 62.406956697250166 94.35814951049768 C 0.0 **** -0.24
20732 H 7.951758220312911 61.68901240036138 94.20637316949798 H 0.0 **** 0.06
20733 H 8.548737241853985 63.313618884968776 93.78946546448229 H 0.0 **** 0.06
20734 H 9.69847914553094 61.97361638033294 94.01929388749214 H 0.0 **** 0.06
20735 H 8.831743527696034 62.650817072965026 95.41820226543692 H 0.0 **** 0.06
20736 C 66.85109426212183 18.318980474725947 48.67821463885207 C 0.0 **** -0.24
20737 H 65.85475006988193 17.886281158534075 48.7687469969008 H 0.0 **** 0.06
20738 H 67.33371728036424 18.32502009804213 49.65531856172237 H 0.0 **** 0.06
20739 H 66.7705677278101 19.34048917505973 48.305425081635974 H 0.0 **** 0.06
20740 H 67.44439219286086 17.723818892565134 47.98338454296538 H 0.0 **** 0.06
20741 C 46.73100970548842 30.567242327411037 98.75682710186031 C 0.0 **** -0.24
20742 H 45.79362025667368 30.225962309067825 98.31866335303478 H 0.0 **** 0.06
20743 H 47.08483273302534 31.446447462396293 98.21718719978702 H 0.0 **** 0.06
20744 H 47.47513494990971 29.773352154047302 98.68495480596103 H 0.0 **** 0.06
20745 H 46.570953946859944 30.821915613013118 99.80384245375762 H 0.0 **** 0.06
20746 C 92.20225805046931 15.599545764457492 51.30798209407908 C 0.0 **** -0.24
20747 H 91.9762978229119 15.256113950360131 50.2977795406598 H 0.0 **** 0.06
20748 H 91.29734695260481 15.563250571206218 51.91364211064126 H 0.0 **** 0.06
20749 H 92.57348084067303 16.623870400420593 51.26733399116807 H 0.0 **** 0.06
20750 H 92.96283231562467 14.955201526663497 51.748920687568614 H 0.0 **** 0.06
20751 C 61.97809142279874 54.21587540388669 95.7104783103477 C 0.0 **** -0.24
20752 H 61.110481677434564 54.66838759247635 96.19026011536701 H 0.0 **** 0.06
20753 H 62.82710874428932 54.243358229762144 96.39374901487795 H 0.0 **** 0.06
20754 H 62.22300171541798 54.769269261802535 94.80398190511245 H 0.0 **** 0.06
20755 H 61.75236240454592 53.18013365233258 95.4535793418229 H 0.0 **** 0.06
20756 C 18.459473532726978 59.46106620582202 34.684875258929395 C 0.0 **** -0.24
20757 H 18.385784602165465 60.49001380545286 34.332531187561926 H 0.0 **** 0.06
20758 H 19.214578553420488 59.39905367642592 35.46876519467634 H 0.0 **** 0.06
20759 H 18.741986729489476 58.81237418715085 33.855394370644916 H 0.0 **** 0.06
20760 H 17.494975074269327 59.143413508004926 35.08223793412225 H 0.0 **** 0.06
20761 C 92.35398623390184 36.29561275101338 71.01450767809769 C 0.0 **** -0.24
20762 H 91.71826935387891 37.10612596584386 71.37129465385367 H 0.0 **** 0.06
20763 H 93.37295351948798 36.45094295350236 71.3700225070485 H 0.0 **** 0.06
20764 H 92.34697306815963 36.28119087616187 69.92535420463611 H 0.0 **** 0.06
20765 H 91.9775519806982 35.3452921106165 71.3935386911414 H 0.0 **** 0.06
20766 C 22.416613478673924 104.52729803171131 15.368468787973796 C 0.0 **** -0.24
20767 H 22.65809282864012 105.5837281024824 15.488800932388926 H 0.0 **** 0.06
20768 H 23.334533438317067 103.94046720776224 15.394276888999713 H 0.0 **** 0.06
20769 H 21.914768796886904 104.37709178053262 14.412257729477318 H 0.0 **** 0.06
20770 H 21.757975945098906 104.21120025191155 16.177554914844194 H 0.0 **** 0.06
20771 C 61.854554748975445 102.86567697166679 52.8635479839826 C 0.0 **** -0.24
20772 H 60.96171868093616 102.31071253622565 53.149468805771896 H 0.0 **** 0.06
20773 H 62.22605454153515 102.48882228998752 51.909647510853574 H 0.0 **** 0.06
20774 H 62.621607053183695 102.7385035404349 53.62734587956253 H 0.0 **** 0.06
20775 H 61.6094434446443 103.92313142535673 52.76622346701721 H 0.0 **** 0.06
20776 C 89.77623654656958 46.98126734759251 47.33253569657498 C 0.0 **** -0.24
20777 H 90.10404703600562 46.698628752091224 46.331709381786936 H 0.0 **** 0.06
20778 H 88.74903303714888 46.65032082885813 47.483998161555036 H 0.0 **** 0.06
20779 H 89.828043781968 48.06542084938246 47.43863385310101 H 0.0 **** 0.06
20780 H 90.42324396298008 46.51225777370405 48.07330417101048 H 0.0 **** 0.06
20781 C 38.57809123715658 57.29693380375198 28.822538384617197 C 0.0 **** -0.24
20782 H 38.543041480379586 56.21187402157909 28.92140370862962 H 0.0 **** 0.06
20783 H 38.38023684593891 57.57275894613235 27.786923271100406 H 0.0 **** 0.06
20784 H 39.56503063042106 57.65608939233408 29.114043867432173 H 0.0 **** 0.06
20785 H 37.82286101255386 57.744318066827475 29.469302811954627 H 0.0 **** 0.06
20786 C 108.29335828042551 50.02938986122405 14.020557725895497 C 0.0 **** -0.24
20787 H 108.08263802097869 49.452149238506706 14.921685839643022 H 0.0 **** 0.06
20788 H 107.77875298346083 50.98831481158567 14.075355898641568 H 0.0 **** 0.06
20789 H 107.94466291101713 49.478248855277116 13.146711209977795 H 0.0 **** 0.06
20790 H 109.36712400960931 50.19671869637017 13.939664336097668 H 0.0 **** 0.06
20791 C 13.03258940096903 22.55453384672837 89.07761521926236 C 0.0 **** -0.24
20792 H 12.77770771421352 23.245331214477808 89.88164563325267 H 0.0 **** 0.06
20793 H 12.816472987736486 23.02111314651151 88.11604043811911 H 0.0 **** 0.06
20794 H 12.443906799251675 21.643495774771477 89.18132121693498 H 0.0 **** 0.06
20795 H 14.093659150017974 22.309769584896422 89.13271547697619 H 0.0 **** 0.06
20796 C 60.24639167179443 1.1460092796762353 11.922586085240994 C 0.0 **** -0.24
20797 H 59.62795490969141 1.090008922072414 12.818831324099548 H 0.0 **** 0.06
20798 H 59.671784950387135 0.7991895095330648 11.063481469678294 H 0.0 **** 0.06
20799 H 61.126798431943214 0.5164782715938117 12.049771666935428 H 0.0 **** 0.06
20800 H 60.557478379097816 2.1776967550073323 11.759728651598508 H 0.0 **** 0.06
20801 C 100.36903848552122 73.44541214511744 16.623526874039275 C 0.0 **** -0.24
20802 H 100.40825215641532 72.7955389206109 15.749043791220966 H 0.0 **** 0.06
20803 H 100.1828203381734 74.47121995905685 16.304864501849384 H 0.0 **** 0.06
20804 H 101.31980599739913 73.39648939266448 17.155880469503966 H 0.0 **** 0.06
20805 H 99.56588219058622 73.11780121952988 17.283796224557943 H 0.0 **** 0.06
20806 C 31.119403674827197 62.73737229267812 75.19081497763153 C 0.0 **** -0.24
20807 H 30.36472172903433 63.32235736664535 75.71626827137214 H 0.0 **** 0.06
20808 H 30.94185199410316 61.67573411977804 75.36598749805898 H 0.0 **** 0.06
20809 H 32.109367251805395 63.007102954819686 75.55876340342252 H 0.0 **** 0.06
20810 H 31.05997779784201 62.9439492034673 74.12217279952216 H 0.0 **** 0.06
20811 C 83.17504795758549 18.1760641106265 69.66213378466412 C 0.0 **** -0.24
20812 H 83.84432778929477 19.032445636962727 69.58205431417356 H 0.0 **** 0.06
20813 H 83.24341320529447 17.575515288306057 68.75539797698394 H 0.0 **** 0.06
20814 H 82.1503094412687 18.52713330222801 69.78987977652692 H 0.0 **** 0.06
20815 H 83.46037896255189 17.57012262225974 70.522188837632 H 0.0 **** 0.06
20816 C 109.17398577185094 100.83964838422764 5.862393390468185 C 0.0 **** -0.24
20817 H 109.15655256301305 100.87946603991963 4.7733717296526095 H 0.0 **** 0.06
20818 H 110.1968241219284 100.97185956843097 6.214927726846923 H 0.0 **** 0.06
20819 H 108.79612801506372 99.87282980481086 6.196400814919855 H 0.0 **** 0.06
20820 H 108.54453254342606 101.63339736876361 6.264339556322341 H 0.0 **** 0.06
20821 C 6.013968558573566 31.84582429795472 92.26363109456747 C 0.0 **** -0.24
20822 H 5.828265856420757 30.82286731922295 92.59120717367136 H 0.0 **** 0.06
20823 H 6.697325869013582 32.33248062748038 92.96046538657248 H 0.0 **** 0.06
20824 H 5.072494103468159 32.39456995221349 92.23409084112848 H 0.0 **** 0.06
20825 H 6.4586104821000845 31.83329416517104 91.26819794935204 H 0.0 **** 0.06
20826 C 96.34928280019881 31.678406307147384 62.68949803470883 C 0.0 **** -0.24
20827 H 96.09897250359113 32.01265634311761 63.69636407650623 H 0.0 **** 0.06
20828 H 96.7488775628322 30.664954606673007 62.732952167534776 H 0.0 **** 0.06
20829 H 97.09688660598778 32.345269894104945 62.260838474804146 H 0.0 **** 0.06
20830 H 95.45312227089742 31.690241849181348 62.06963131974803 H 0.0 **** 0.06
20831 C 77.19292988485341 54.158910764094514 44.67619763840365 C 0.0 **** -0.24
20832 H 77.91097304424721 53.38282264960671 44.939643588153764 H 0.0 **** 0.06
20833 H 77.2954527619533 54.40449560489611 43.61839860545601 H 0.0 **** 0.06
20834 H 77.3836796619587 55.048938772028436 45.276362830361975 H 0.0 **** 0.06
20835 H 76.18174057810751 53.80027494796485 44.869945214462305 H 0.0 **** 0.06
20836 C 70.25334440499103 33.6164733250568 44.991527777461386 C 0.0 **** -0.24
20837 H 69.43424228493268 32.937969780403876 45.228648375267994 H 0.0 **** 0.06
20838 H 70.5670005628013 34.13614487647624 45.897619342109635 H 0.0 **** 0.06
20839 H 69.92042350050812 34.34332422337428 44.25187117387554 H 0.0 **** 0.06
20840 H 71.09205634041734 33.04741301420239 44.59076451395208 H 0.0 **** 0.06
20841 C 52.57220950349088 36.60025568324262 89.2303125226856 C 0.0 **** -0.24
20842 H 52.59639791705038 35.70713763899269 89.8545717835957 H 0.0 **** 0.06
20843 H 53.57247149237469 36.802370672467646 88.84675279978386 H 0.0 **** 0.06
20844 H 52.23245614170099 37.44891077854885 89.82452525609462 H 0.0 **** 0.06
20845 H 51.887628922725014 36.44271238638285 88.39763069881842 H 0.0 **** 0.06
20846 C 13.054097960158686 72.19246826134491 86.51907996080638 C 0.0 **** -0.24
20847 H 13.75233750760583 72.20708485147559 87.3559583537997 H 0.0 **** 0.06
20848 H 13.602788053415708 72.02758640537195 85.59194097771439 H 0.0 **** 0.06
20849 H 12.529688459387273 73.14584727699791 86.46681524417028 H 0.0 **** 0.06
20850 H 12.332773653695085 71.38738754106114 86.66244273434413 H 0.0 **** 0.06
20851 C 70.66865815604197 45.23921864412216 65.7613826854462 C 0.0 **** -0.24
20852 H 70.04029460276928 44.586843713340265 65.15439768393017 H 0.0 **** 0.06
20853 H 70.8993533792131 44.745787949080515 66.70507297817818 H 0.0 **** 0.06
20854 H 70.14120725489533 46.172325372551505 65.957415565242 H 0.0 **** 0.06
20855 H 71.59503333299736 45.45150444713514 65.22614403281906 H 0.0 **** 0.06
20856 C 54.909027173881384 31.352166171658837 88.00861152390598 C 0.0 **** -0.24
20857 H 55.99432634818427 31.25802512948735 87.97276858928592 H 0.0 **** 0.06
20858 H 54.477914037718904 30.43283934116721 88.40545811860864 H 0.0 **** 0.06
20859 H 54.52643538949022 31.529539999204417 87.0035823722601 H 0.0 **** 0.06
20860 H 54.63844588403876 32.1881452241513 88.65361721674645 H 0.0 **** 0.06
20861 C 32.67730085654355 95.78683556366786 12.649296101614453 C 0.0 **** -0.24
20862 H 33.606472624101144 95.87264217230597 13.212215792094781 H 0.0 **** 0.06
20863 H 32.76115515946202 96.3525354347936 11.721397582127452 H 0.0 **** 0.06
20864 H 31.85433330286679 96.18442056716856 13.243825466072536 H 0.0 **** 0.06
20865 H 32.48694534558592 94.73771676505388 12.420700084472571 H 0.0 **** 0.06
20866 C 72.39558980123064 90.77752844931724 98.05039779385339 C 0.0 **** -0.24
20867 H 72.65959103421937 90.2844320233313 97.11534818869 H 0.0 **** 0.06
20868 H 73.18035346973278 91.483567416037 98.32406653678595 H 0.0 **** 0.06
20869 H 72.28701588365004 90.03180600709669 98.83702554347047 H 0.0 **** 0.06
20870 H 71.45385628601716 91.31219583161558 97.92490933962807 H 0.0 **** 0.06
20871 C 6.481587143301397 79.95283852801597 36.05001533298429 C 0.0 **** -0.24
20872 H 7.474148949217579 79.63221921307405 36.368773791085005 H 0.0 **** 0.06
20873 H 6.443553146744534 81.04229873815603 36.02166959857698 H 0.0 **** 0.06
20874 H 5.73679064311051 79.58042417793274 36.75402125093564 H 0.0 **** 0.06
20875 H 6.273609304151307 79.55573828404474 35.056809851285976 H 0.0 **** 0.06
20876 C 42.9230394456643 110.69952369762817 10.782774990797847 C 0.0 **** -0.24
20877 H 43.60095522223574 110.20841747747704 10.083743154367184 H 0.0 **** 0.06
20878 H 42.996404524879324 111.77996596140173 10.662431383640211 H 0.0 **** 0.06
20879 H 43.194110199872654 110.42677485069615 11.802532926958307 H 0.0 **** 0.06
20880 H 41.9003288125171 110.37932344264144 10.581488226036925 H 0.0 **** 0.06
20881 C 73.2824488501177 28.44563453325776 2.064123646555865 C 0.0 **** -0.24
20882 H 72.74371506147133 27.57274858134727 1.6936028635309892 H 0.0 **** 0.06
20883 H 74.31687436077044 28.404230850784643 1.7242970692395527 H 0.0 **** 0.06
20884 H 73.25682421388046 28.451170310791213 3.1538930247573855 H 0.0 **** 0.06
20885 H 72.80998231082594 29.351047567962183 1.6844144060641373 H 0.0 **** 0.06
20886 C 21.670721869698873 68.8417513497772 84.45377381412453 C 0.0 **** -0.24
20887 H 21.80061086731496 69.89492711062728 84.20521355214424 H 0.0 **** 0.06
20888 H 20.760494944744114 68.46729861216758 83.98677855380151 H 0.0 **** 0.06
20889 H 21.597073386314637 68.73102477838718 85.53606588872924 H 0.0 **** 0.06
20890 H 22.52689362156609 68.27410798041373 84.08808605065451 H 0.0 **** 0.06
20891 C 79.21117935489693 100.14158059237451 83.77204944200494 C 0.0 **** -0.24
20892 H 79.80922277944777 100.99933685063706 84.08011896274438 H 0.0 **** 0.06
20893 H 78.20178910734165 100.47214601207742 83.52559573465923 H 0.0 **** 0.06
20894 H 79.1686622156214 99.41719892529244 84.58525054385026 H 0.0 **** 0.06
20895 H 79.66566997484145 99.67724844582503 82.89602685537027 H 0.0 **** 0.06
20896 C 107.31559698066017 28.628209200884726 103.17868070577882 C 0.0 **** -0.24
20897 H 107.66951472645256 29.445806028884164 103.80588095556243 H 0.0 **** 0.06
20898 H 107.71568098605341 28.74396777405076 102.1712908573017 H 0.0 **** 0.06
20899 H 106.22595274362513 28.644527447176273 103.1416705118593 H 0.0 **** 0.06
20900 H 107.65094428268017 27.678991705249018 103.59672005118043 H 0.0 **** 0.06
20901 C 87.206768570404 94.69972150713986 31.99662290457161 C 0.0 **** -0.24
20902 H 86.58123124678377 95.4017890564238 32.54782047543699 H 0.0 **** 0.06
20903 H 86.68296720544822 94.37802729168574 31.095997252079485 H 0.0 **** 0.06
20904 H 87.41934694469586 93.83353520562656 32.62327933645804 H 0.0 **** 0.06
20905 H 88.14145618231896 95.18636851750425 31.719487085417597 H 0.0 **** 0.06
20906 C 108.77680069752812 9.928816185121466 73.04771820668373 C 0.0 **** -0.24
20907 H 108.43531552278145 10.584784751191691 73.84875172407692 H 0.0 **** 0.06
20908 H 109.65264314435323 10.367611379194695 72.5680814373049 H 0.0 **** 0.06
20909 H 107.98109363047111 9.807756419901754 72.31275606920047 H 0.0 **** 0.06
20910 H 109.03987467965815 8.955623988878273 73.46294660004611 H 0.0 **** 0.06
20911 C 109.03827527249386 26.55688534603614 77.01797434411903 C 0.0 **** -0.24
20912 H 108.32975262855659 27.382848758626054 77.08717484801431 H 0.0 **** 0.06
20913 H 109.59269080510089 26.47572366800459 77.95270838649915 H 0.0 **** 0.06
20914 H 109.73203934558163 26.74106548275759 76.1977776397921 H 0.0 **** 0.06
20915 H 108.49667787489707 25.629188560427423 76.83500044244542 H 0.0 **** 0.06
20916 C 93.18256023028039 64.23073641793866 97.96497186459862 C 0.0 **** -0.24
20917 H 93.4666024525389 65.19627787601411 97.54459780300307 H 0.0 **** 0.06
20918 H 92.10779835956967 64.0880167448787 97.85224841890142 H 0.0 **** 0.06
20919 H 93.44325092993918 64.20556699969967 99.02315683312587 H 0.0 **** 0.06
20920 H 93.71323332853413 63.435966557605184 97.44101435765535 H 0.0 **** 0.06
20921 C 62.44095870987405 84.64744978926734 10.963018391665429 C 0.0 **** -0.24
20922 H 61.826089357720775 85.52433004301515 10.760059630700056 H 0.0 **** 0.06
20923 H 62.27546312720608 83.89959770331774 10.187156255726364 H 0.0 **** 0.06
20924 H 62.169743801759694 84.23114124424924 11.93344935353349 H 0.0 **** 0.06
20925 H 63.49251977600784 84.9360218851702 10.972562138151773 H 0.0 **** 0.06
20926 C 66.86886620643895 98.05256509694414 80.28440587882824 C 0.0 **** -0.24
20927 H 66.44861343805337 98.08575001184192 79.27946613006628 H 0.0 **** 0.06
20928 H 66.56321591187799 98.94381199763279 80.83459089031504 H 0.0 **** 0.06
20929 H 67.95662382316112 98.01950747677785 80.22218755693348 H 0.0 **** 0.06
20930 H 66.50681694782901 97.16400196508238 80.80162483756078 H 0.0 **** 0.06
20931 C 17.038728340193938 45.830619097581405 36.15807471881806 C 0.0 **** -0.24
20932 H 16.07181276209666 45.749776407045346 36.65493112779711 H 0.0 **** 0.06
20933 H 17.142909609711854 46.828084295235016 35.72859815571758 H 0.0 **** 0.06
20934 H 17.103559743100032 45.084407315840764 35.36583015220617 H 0.0 **** 0.06
20935 H 17.83518279478547 45.6619112472691 36.88288953676721 H 0.0 **** 0.06
20936 C 89.31087021263824 65.74144904889818 66.99391674141945 C 0.0 **** -0.24
20937 H 89.41193242713292 66.58897016636145 67.67276577385562 H 0.0 **** 0.06
20938 H 89.16687662491177 64.82845616840191 67.57232009804291 H 0.0 **** 0.06
20939 H 90.21264225465411 65.65189961097587 66.38896998040919 H 0.0 **** 0.06
20940 H 88.4507935262693 65.89945159563459 66.34321877535884 H 0.0 **** 0.06
20941 C 15.014867207967676 109.98414833634882 103.36854414063055 C 0.0 **** -0.24
20942 H 13.929858632824104 110.08152382268096 103.35859989660082 H 0.0 **** 0.06
20943 H 15.309795213659125 109.27810219107666 104.14593269457191 H 0.0 **** 0.06
20944 H 15.464869932511174 110.95635629651345 103.56965551813454 H 0.0 **** 0.06
20945 H 15.355582897562087 109.61983206203352 102.39899524185535 H 0.0 **** 0.06
20946 C 2.1709098436154193 71.60390119043299 97.71453798080876 C 0.0 **** -0.24
20947 H 1.6080047943906095 71.17646255636141 96.88436166755108 H 0.0 **** 0.06
20948 H 2.077322855922162 72.68924957039144 97.69562061202308 H 0.0 **** 0.06
20949 H 3.220891697687506 71.32737187624242 97.62183325720389 H 0.0 **** 0.06
20950 H 1.775174346854243 71.21967130487681 98.65542078180846 H 0.0 **** 0.06
20951 C 3.3690630217218285 41.59903497973661 34.10349572437042 C 0.0 **** -0.24
20952 H 2.8137266967617016 40.86021066744752 34.68210337171054 H 0.0 **** 0.06
20953 H 2.668807703115281 42.252131597167356 33.5812851000546 H 0.0 **** 0.06
20954 H 4.001344517021705 41.08981642077668 33.37672404268227 H 0.0 **** 0.06
20955 H 3.990706995096705 42.19299592414016 34.77336713951982 H 0.0 **** 0.06
20956 C 112.9763851283039 20.05888952786864 91.94159012475323 C 0.0 **** -0.24
20957 H 112.54163726647498 20.583447918094716 91.0912347291932 H 0.0 **** 0.06
20958 H 112.47476713383482 20.372368351205893 92.85640972124841 H 0.0 **** 0.06
20959 H 114.03832650735625 20.295498901912982 92.00927377160781 H 0.0 **** 0.06
20960 H 112.85178828771812 18.983983838448797 91.80744845355754 H 0.0 **** 0.06
20961 C 113.19076164074993 54.59451722670377 11.684981877274396 C 0.0 **** -0.24
20962 H 113.91325663724217 55.2487513425868 12.173554585432257 H 0.0 **** 0.06
20963 H 112.19388591515934 55.0284748702806 11.768577094650851 H 0.0 **** 0.06
20964 H 113.20418150840943 53.616689588069804 12.164783379314272 H 0.0 **** 0.06
20965 H 113.45354943008229 54.4864278701093 10.631792469871144 H 0.0 **** 0.06
20966 C 76.55221169339673 73.86354313142225 83.74936658682789 C 0.0 **** -0.24
20967 H 77.46053206259887 73.53167344624843 84.25289732925374 H 0.0 **** 0.06
20968 H 75.69425525133444 73.33192502702643 84.15945245475957 H 0.0 **** 0.06
20969 H 76.63225484232329 73.65712138932584 82.68244968808669 H 0.0 **** 0.06
20970 H 76.42353819812996 74.93516071381659 83.90294544565684 H 0.0 **** 0.06
20971 C 15.366484536129946 88.51238881352756 112.52866941341594 C 0.0 **** -0.24
20972 H 15.016341748282116 89.47607205132782 112.16010579092676 H 0.0 **** 0.06
20973 H 14.674755247703544 87.73010878178876 112.21591854320152 H 0.0 **** 0.06
20974 H 15.418633783208207 88.53664591097795 113.61765915907957 H 0.0 **** 0.06
20975 H 16.356272490209136 88.30598794056891 112.12255860483974 H 0.0 **** 0.06
20976 C 69.98453941594175 10.534843256865202 37.28004288927659 C 0.0 **** -0.24
20977 H 70.48741036905139 10.786250839944444 38.213479306619156 H 0.0 **** 0.06
20978 H 68.90567711682223 10.601766825906026 37.420467003283974 H 0.0 **** 0.06
20979 H 70.25082920919697 9.519812428104075 36.98633950107301 H 0.0 **** 0.06
20980 H 70.29442414948339 11.231211882456591 36.501849690490424 H 0.0 **** 0.06
20981 C 47.492739637040984 73.13906486487667 55.72534941512498 C 0.0 **** -0.24
20982 H 48.10120231860128 73.22991130949504 56.6255281099007 H 0.0 **** 0.06
20983 H 47.38694995573849 72.08614374076026 55.46320779416425 H 0.0 **** 0.06
20984 H 47.97492807354479 73.6720407412264 54.9060841578094 H 0.0 **** 0.06
20985 H 46.507303725719964 73.56891336254392 55.908837748683254 H 0.0 **** 0.06
20986 C 101.7389301627343 57.65174907214288 86.45403252487952 C 0.0 **** -0.24
20987 H 102.51053490479467 57.853458278786576 87.1971711958072 H 0.0 **** 0.06
20988 H 100.80694489181877 57.39918177183024 86.9589005481154 H 0.0 **** 0.06
20989 H 102.05046996962102 56.81804190755416 85.82454075956018 H 0.0 **** 0.06
20990 H 101.58976478831497 58.53726635817817 85.83586150853536 H 0.0 **** 0.06
20991 C 111.89754497840511 46.5751126341987 45.493536635879146 C 0.0 **** -0.24
20992 H 111.88906215669763 46.13803960559814 46.492097986402655 H 0.0 **** 0.06
20993 H 112.92859803846672 46.73973102755179 45.17855251098321 H 0.0 **** 0.06
20994 H 111.36585016979744 47.52643437574324 45.5098804941143 H 0.0 **** 0.06
20995 H 111.40837817390442 45.896424108836584 44.79536170487127 H 0.0 **** 0.06
20996 C 91.88952966399836 39.23385326559804 49.75939285151371 C 0.0 **** -0.24
20997 H 92.90167913564835 38.88765172822865 49.55196466470571 H 0.0 **** 0.06
20998 H 91.17365229051559 38.597590451556954 49.23938059186483 H 0.0 **** 0.06
20999 H 91.78040868080903 40.26218297388938 49.41391606283358 H 0.0 **** 0.06
21000 H 91.70300803107429 39.18960107345822 50.832269807012906 H 0.0 **** 0.06
21001 C 57.90854704968058 88.19980731693187 6.437972909230572 C 0.0 **** -0.24
21002 H 58.107593063143 87.17473291745017 6.123271797273073 H 0.0 **** 0.06
21003 H 58.852800421500504 88.72809681696032 6.571173313354995 H 0.0 **** 0.06
21004 H 57.361007635244576 88.19042440122888 7.380277047423947 H 0.0 **** 0.06
21005 H 57.31389880506228 88.70399771687926 5.676245230495889 H 0.0 **** 0.06
21006 C 45.56292305781912 15.969383326274908 36.440177870444074 C 0.0 **** -0.24
21007 H 44.58549751239655 15.491601189857477 36.50480039683349 H 0.0 **** 0.06
21008 H 46.251418725777185 15.314982496577898 35.90430857809399 H 0.0 **** 0.06
21009 H 45.9449093662528 16.153612760982014 37.44473726657343 H 0.0 **** 0.06
21010 H 45.47098808724754 16.91532799931167 35.9077061658336 H 0.0 **** 0.06
21011 C 41.71979396929069 20.33702757449123 16.381612591784915 C 0.0 **** -0.24
21012 H 40.73111707449351 20.341190616246877 16.83942168218354 H 0.0 **** 0.06
21013 H 42.443501120570915 19.920339484823785 17.082294804027498 H 0.0 **** 0.06
21014 H 42.00590261354597 21.35815813440564 16.12719984636354 H 0.0 **** 0.06
21015 H 41.69915795548741 19.73027258800579 15.476383841384518 H 0.0 **** 0.06
21016 C 59.55998540296183 48.294010308032085 32.481393965961445 C 0.0 **** -0.24
21017 H 59.193648769270936 47.83235856405682 33.39849521943384 H 0.0 **** 0.06
21018 H 59.83968000301931 47.51563038436876 31.77048169376343 H 0.0 **** 0.06
21019 H 60.430984041975876 48.909313211490826 32.70660554128813 H 0.0 **** 0.06
21020 H 58.7766287376505 48.91652502758484 32.049679614173485 H 0.0 **** 0.06
21021 C 74.19540495522693 91.15189864952876 65.80902445378945 C 0.0 **** -0.24
21022 H 74.71415662749055 90.78160597731748 66.69332395023775 H 0.0 **** 0.06
21023 H 74.86158033089481 91.80533218696058 65.2446348691359 H 0.0 **** 0.06
21024 H 73.31122208555485 91.70922892776701 66.11447662895841 H 0.0 **** 0.06
21025 H 73.8978305854842 90.31017775347513 65.1842877585159 H 0.0 **** 0.06
21026 C 10.234224210176691 85.84045870483078 115.74184237384009 C 0.0 **** -0.24
21027 H 10.668465160496766 86.18793106640283 116.67874805309654 H 0.0 **** 0.06
21028 H 11.02599450755703 85.47068486059857 115.0898755893756 H 0.0 **** 0.06
21029 H 9.716041247791878 86.6656935612381 115.25243920998733 H 0.0 **** 0.06
21030 H 9.526753965230427 85.03665365853414 115.94597190281837 H 0.0 **** 0.06
21031 C 50.58195639354244 115.51374770633561 43.81398699700762 C 0.0 **** -0.24
21032 H 50.118855714794535 115.21033067985846 42.87539848882355 H 0.0 **** 0.06
21033 H 51.0833422219405 114.65575968234864 44.26451723208439 H 0.0 **** 0.06
21034 H 49.815193817817246 115.8842924839584 44.49442382816727 H 0.0 **** 0.06
21035 H 51.31005156845981 116.30097149242688 43.62240257007832 H 0.0 **** 0.06
21036 C 88.79373555079104 91.48847940191138 64.25483766873214 C 0.0 **** -0.24
21037 H 88.01600793743341 91.6342967186705 63.505468868031926 H 0.0 **** 0.06
21038 H 88.65322861115791 92.20131684872325 65.06783346853098 H 0.0 **** 0.06
21039 H 89.77171596266442 91.64510151473121 63.79817645705958 H 0.0 **** 0.06
21040 H 88.73489772597924 90.47377588494584 64.64695163850092 H 0.0 **** 0.06
21041 C 60.301659942430135 74.54295910953698 52.16639745115177 C 0.0 **** -0.24
21042 H 61.182767995289126 74.84762239681743 52.73172520781924 H 0.0 **** 0.06
21043 H 59.4188803247868 75.03072910137007 52.58027443679239 H 0.0 **** 0.06
21044 H 60.18452016790003 73.46177985589748 52.22982590482775 H 0.0 **** 0.06
21045 H 60.42226005522578 74.83478790998487 51.12321908274231 H 0.0 **** 0.06
21046 C 89.81582317111915 60.725625431645426 72.60137778536318 C 0.0 **** -0.24
21047 H 88.90007815712444 61.306675222954084 72.49566722508541 H 0.0 **** 0.06
21048 H 89.6316088746884 59.872806458831406 73.2550546711052 H 0.0 **** 0.06
21049 H 90.59545268608403 61.35359749845577 73.03406535164407 H 0.0 **** 0.06
21050 H 90.13654684380974 60.37100269601268 71.62255373757671 H 0.0 **** 0.06
21051 C 62.73079256531588 68.88788282266898 108.5199000621295 C 0.0 **** -0.24
21052 H 62.10250488856079 69.61076602673353 107.99893647692502 H 0.0 **** 0.06
21053 H 63.22365987770448 68.24385126699929 107.79215719790042 H 0.0 **** 0.06
21054 H 62.11343048713675 68.2818822396033 109.18317068799846 H 0.0 **** 0.06
21055 H 63.48284452928715 69.41658556455798 109.10556447871062 H 0.0 **** 0.06
21056 C 24.209177319051406 30.30861678998123 20.16900491606265 C 0.0 **** -0.24
21057 H 24.205998398366162 29.25858466698307 20.462409110249798 H 0.0 **** 0.06
21058 H 25.081545448151786 30.80210898937254 20.59814462035393 H 0.0 **** 0.06
21059 H 23.302623510992362 30.790782042844803 20.533255315583492 H 0.0 **** 0.06
21060 H 24.248453688412518 30.382442007551155 19.082419101174565 H 0.0 **** 0.06
21061 C 5.00690563830068 21.55135054751193 73.78937882100549 C 0.0 **** -0.24
21062 H 5.494908823853564 21.665345709826 74.75696577117655 H 0.0 **** 0.06
21063 H 4.01112923734064 21.993464820191463 73.83154425406869 H 0.0 **** 0.06
21064 H 4.925551098640597 20.492604428123485 73.54591511590327 H 0.0 **** 0.06
21065 H 5.595730880852159 22.056379540605548 73.02352105636626 H 0.0 **** 0.06
21066 C 24.52297230685872 13.997671349720235 50.055282786981934 C 0.0 **** -0.24
21067 H 25.512338952363564 14.358559664622305 50.337606817758115 H 0.0 **** 0.06
21068 H 24.180104720027373 14.535345322978202 49.17137664866243 H 0.0 **** 0.06
21069 H 23.826845857556606 14.167171490931509 50.87644975928589 H 0.0 **** 0.06
21070 H 24.574012498453612 12.932058683602406 49.83564216984445 H 0.0 **** 0.06
21071 C 77.48623792343687 23.515577004573686 88.36370145440878 C 0.0 **** -0.24
21072 H 78.51139457255897 23.82564735529506 88.56697416273903 H 0.0 **** 0.06
21073 H 77.2787623540643 23.621212661245337 87.2984425186255 H 0.0 **** 0.06
21074 H 76.79792233780024 24.14106401238965 88.93201580893125 H 0.0 **** 0.06
21075 H 77.357051834241 22.47367938518485 88.65805991578043 H 0.0 **** 0.06
21076 C 33.20694874243945 60.51335412073536 11.746883254815515 C 0.0 **** -0.24
21077 H 32.82164766113638 61.52759901859247 11.64026739487609 H 0.0 **** 0.06
21078 H 34.296143742682034 60.531737479106596 11.69148513628646 H 0.0 **** 0.06
21079 H 32.81175835916562 59.88804541035495 10.94653013783278 H 0.0 **** 0.06
21080 H 32.898556202800876 60.10785155903733 12.71051610473765 H 0.0 **** 0.06
21081 C 89.77951016200338 1.8103972810502 19.964906490584355 C 0.0 **** -0.24
21082 H 90.20262922203587 1.2557687369325663 19.126874247249113 H 0.0 **** 0.06
21083 H 90.5015284040852 2.5473458593260148 20.315279080655724 H 0.0 **** 0.06
21084 H 89.5421587528613 1.1197775565443067 20.774455309719016 H 0.0 **** 0.06
21085 H 88.86955435197123 2.316784478582008 19.64222086822351 H 0.0 **** 0.06
21086 C 78.53445988523917 5.065436708810807 25.37122238567906 C 0.0 **** -0.24
21087 H 78.57901651751834 6.08701244778004 25.748591256828092 H 0.0 **** 0.06
21088 H 78.60118886693614 5.075916353256531 24.28325364443765 H 0.0 **** 0.06
21089 H 77.59220756311491 4.607873485266111 25.673477308122926 H 0.0 **** 0.06
21090 H 79.36480980352225 4.490415614047606 25.780724878948718 H 0.0 **** 0.06
21091 C 35.24793673443516 103.46817970232173 61.305537118917414 C 0.0 **** -0.24
21092 H 36.179372155118486 103.87068981172366 60.909898255647306 H 0.0 **** 0.06
21093 H 35.34886149881882 102.39279243442643 61.451430779578175 H 0.0 **** 0.06
21094 H 34.438617726581015 103.66435624900969 60.600973309194785 H 0.0 **** 0.06
21095 H 35.02199160780589 103.94547160128542 62.25937925970197 H 0.0 **** 0.06
21096 C 32.29963428541981 47.73676694977098 63.08836694981551 C 0.0 **** -0.24
21097 H 33.23972771700434 47.185388662244605 63.10556803490027 H 0.0 **** 0.06
21098 H 31.994673716717443 47.96554710256163 64.11012588288006 H 0.0 **** 0.06
21099 H 31.532047212530486 47.13144323389997 62.607158278282085 H 0.0 **** 0.06
21100 H 32.4330923692215 48.66425858992423 62.53195997180889 H 0.0 **** 0.06
21101 C 64.52712687002709 104.24315008326624 87.06844580421028 C 0.0 **** -0.24
21102 H 65.57480723188681 104.35328097603588 87.34671464624279 H 0.0 **** 0.06
21103 H 64.43323479787196 104.29639429187961 85.98341818496112 H 0.0 **** 0.06
21104 H 63.94450970161246 105.04427909926912 87.52363159964472 H 0.0 **** 0.06
21105 H 64.15706572955497 103.2799113460402 87.41823915209528 H 0.0 **** 0.06
21106 C 85.59486138869958 36.470411674280285 103.22378343419206 C 0.0 **** -0.24
21107 H 84.62483325684339 36.50023223077653 102.72720239252612 H 0.0 **** 0.06
21108 H 86.22643886282738 35.72452472254173 102.74132400795997 H 0.0 **** 0.06
21109 H 85.4567077951282 36.207826755837914 104.2729070366122 H 0.0 **** 0.06
21110 H 86.06923258845325 37.44894693028738 103.15371749612626 H 0.0 **** 0.06
21111 C 9.302382461268223 64.50480128903058 33.3266566736461 C 0.0 **** -0.24
21112 H 8.701664570337982 65.16388375334611 32.69926451664771 H 0.0 **** 0.06
21113 H 9.659435134947898 63.663413799273656 32.732651586571215 H 0.0 **** 0.06
21114 H 8.693351940903554 64.13536010195782 34.151347861664945 H 0.0 **** 0.06
21115 H 10.153440910813146 65.0577380172121 33.72241286416752 H 0.0 **** 0.06
21116 C 104.93572943237554 9.346676541679301 97.85720392705372 C 0.0 **** -0.24
21117 H 105.55174668639874 9.662770393564983 98.69976967660074 H 0.0 **** 0.06
21118 H 105.42696187926673 8.523302483069585 97.33698138020861 H 0.0 **** 0.06
21119 H 104.80284645145568 10.183024668176415 97.17139896750633 H 0.0 **** 0.06
21120 H 103.96290907467754 9.017462001792637 98.22255978193348 H 0.0 **** 0.06
21121 C 109.9649973150586 70.08672341192562 79.47499868479315 C 0.0 **** -0.24
21122 H 109.74921681225183 69.54700875008905 78.5527620405694 H 0.0 **** 0.06
21123 H 109.03258839558055 70.4385910764197 79.91753270679806 H 0.0 **** 0.06
21124 H 110.60862645290554 70.9386767720028 79.25591523482785 H 0.0 **** 0.06
21125 H 110.47029750412692 69.42118698563252 80.17497121675501 H 0.0 **** 0.06
21126 C 64.27818799351172 55.05450484603839 31.451045497136192 C 0.0 **** -0.24
21127 H 63.459317345719285 55.48685955506173 30.87629528557011 H 0.0 **** 0.06
21128 H 64.31113096429448 55.51330098033309 32.439776240322715 H 0.0 **** 0.06
21129 H 65.22052543870058 55.23832693623056 30.933668255256805 H 0.0 **** 0.06
21130 H 64.12323499208668 53.98086024958854 31.552988353051717 H 0.0 **** 0.06
21131 C 43.6438019906123 69.37891359272517 4.714151651055088 C 0.0 **** -0.24
21132 H 43.48932678566376 69.82602932703422 3.731674405297742 H 0.0 **** 0.06
21133 H 42.751154730679616 68.82398014109644 5.004472752556326 H 0.0 **** 0.06
21134 H 43.83754549973173 70.1642198247588 5.444073611038219 H 0.0 **** 0.06
21135 H 44.495950057605114 68.70121580976694 4.674278357970191 H 0.0 **** 0.06
21136 C 95.10349499342412 29.423492208584577 46.99427999635168 C 0.0 **** -0.24
21137 H 95.88957756153971 29.80436380709139 47.64634485505229 H 0.0 **** 0.06
21138 H 95.5198782118202 29.212651462081283 46.00935525913451 H 0.0 **** 0.06
21139 H 94.3137626172802 30.169176574262906 46.904507301549415 H 0.0 **** 0.06
21140 H 94.69175564311284 28.50802565316127 47.41890010482615 H 0.0 **** 0.06
21141 C 61.390970932839934 68.59408348257386 92.2018270083172 C 0.0 **** -0.24
21142 H 61.6891136674667 67.61106141203777 92.56849874415542 H 0.0 **** 0.06
21143 H 60.65910032387072 69.02839653179473 92.88248412470418 H 0.0 **** 0.06
21144 H 60.9497657885247 68.492173265178 91.21027978873389 H 0.0 **** 0.06
21145 H 62.26541171546046 69.24175626408999 92.14632215255688 H 0.0 **** 0.06
21146 C 26.902255279002702 45.47789231728956 53.606086273511025 C 0.0 **** -0.24
21147 H 26.276191323997807 46.255921413737255 53.169435160199285 H 0.0 **** 0.06
21148 H 27.679485039883957 45.938897672016054 54.21657016689409 H 0.0 **** 0.06
21149 H 27.363046206303125 44.893932392796074 52.810405440629964 H 0.0 **** 0.06
21150 H 26.290027359794493 44.82574303255234 54.22854254459377 H 0.0 **** 0.06
21151 C 80.7016346888498 21.567669421106167 17.826279968166205 C 0.0 **** -0.24
21152 H 81.24692527546358 22.021214392332602 16.998122535000448 H 0.0 **** 0.06
21153 H 79.6749206044467 21.366577830046175 17.518031691647423 H 0.0 **** 0.06
21154 H 80.70018430660008 22.24976762717197 18.676336715575786 H 0.0 **** 0.06
21155 H 81.18559158473383 20.633337434785975 18.11174633977592 H 0.0 **** 0.06
21156 C 13.324473068249034 61.28411536645008 94.78004145147223 C 0.0 **** -0.24
21157 H 13.196949497158045 61.24438918785182 95.86255944841024 H 0.0 **** 0.06
21158 H 13.145692388103953 60.295178734341036 94.35762178227006 H 0.0 **** 0.06
21159 H 14.339533750745886 61.602722628958176 94.54468060302423 H 0.0 **** 0.06
21160 H 12.614016038158894 61.99417730776297 94.35706699910442 H 0.0 **** 0.06
21161 C 85.8497258307512 70.18348915110191 8.547969852812983 C 0.0 **** -0.24
21162 H 86.90492092414217 70.40203883298223 8.38951543174888 H 0.0 **** 0.06
21163 H 85.62288702800845 70.24023830805321 9.612684958277903 H 0.0 **** 0.06
21164 H 85.62654751761988 69.18150632384933 8.181200961467628 H 0.0 **** 0.06
21165 H 85.24341341204877 70.91132800999375 8.00786203380157 H 0.0 **** 0.06
21166 C 106.28411578774985 10.315884212935543 90.37917913528982 C 0.0 **** -0.24
21167 H 106.34676361386272 10.599794067018195 89.32876636544322 H 0.0 **** 0.06
21168 H 105.54899095549678 10.94571346404851 90.88207500655274 H 0.0 **** 0.06
21169 H 107.25861970255197 10.447879257078725 90.84964061110941 H 0.0 **** 0.06
21170 H 105.98180408635324 9.271489221838152 90.45658904645545 H 0.0 **** 0.06
21171 C 58.351794915577216 15.045473208145154 106.12688992907688 C 0.0 **** -0.24
21172 H 59.18064672116918 15.718403325500901 106.34557982421609 H 0.0 **** 0.06
21173 H 58.59999278211612 14.431526899421499 105.26139569147699 H 0.0 **** 0.06
21174 H 57.456443490377524 15.629830521058352 105.91360856656323 H 0.0 **** 0.06
21175 H 58.168811005294685 14.402092806355654 106.98880478990021 H 0.0 **** 0.06
21176 C 92.88606007209987 87.04077516019102 1.6071495223276404 C 0.0 **** -0.24
21177 H 93.49730704839368 87.23049779989466 2.4894419939766923 H 0.0 **** 0.06
21178 H 92.53733918309948 86.0086462177553 1.6209366221410981 H 0.0 **** 0.06
21179 H 93.48280424049025 87.21153337845709 0.7107391124439548 H 0.0 **** 0.06
21180 H 92.02996680708532 87.71480871182469 1.6063770732352474 H 0.0 **** 0.06
21181 C 54.04314717279277 100.69877227175658 85.88502851011032 C 0.0 **** -0.24
21182 H 53.80941650963223 101.7206309043529 86.1861124591129 H 0.0 **** 0.06
21183 H 54.0039506376898 100.62261395821247 84.79833853390699 H 0.0 **** 0.06
21184 H 53.315866371147536 100.01617870001076 86.32409818564003 H 0.0 **** 0.06
21185 H 55.04297518590437 100.43806581939543 86.23187232785074 H 0.0 **** 0.06
21186 C 20.808738916364543 61.54614875752003 80.39767880204147 C 0.0 **** -0.24
21187 H 20.530507832533107 60.53057079325728 80.67768124134824 H 0.0 **** 0.06
21188 H 19.926156914388148 62.185684657129755 80.42854047595529 H 0.0 **** 0.06
21189 H 21.220952870874466 61.545474998508055 79.38924452789925 H 0.0 **** 0.06
21190 H 21.555417439319125 61.92406756905088 81.09617870752953 H 0.0 **** 0.06
21191 C 64.88178508573549 91.74436289294985 24.411295859654217 C 0.0 **** -0.24
21192 H 64.86768859394141 91.08755684297549 25.280628714195473 H 0.0 **** 0.06
21193 H 65.54012261323649 92.59075634043188 24.60615572373331 H 0.0 **** 0.06
21194 H 63.87263230257085 92.10638938489876 24.213619210264483 H 0.0 **** 0.06
21195 H 65.24586456090516 91.19171571279782 23.545269429985836 H 0.0 **** 0.06
21196 C 96.39970346801988 18.827098697997716 91.92503021605229 C 0.0 **** -0.24
21197 H 95.98071128076973 18.365909628566303 91.03088105428421 H 0.0 **** 0.06
21198 H 97.47666593644254 18.659460673132244 91.9499684414384 H 0.0 **** 0.06
21199 H 95.94195573102081 18.386182097402425 92.81090613831059 H 0.0 **** 0.06
21200 H 96.19911831177643 19.89903815822077 91.90814748856913 H 0.0 **** 0.06
21201 C 26.519101426146882 97.91134273465397 103.40661082964152 C 0.0 **** -0.24
21202 H 26.14910169712541 97.08225913279529 102.80294770412704 H 0.0 **** 0.06
21203 H 27.187962898873963 97.52874917841682 104.17777104284961 H 0.0 **** 0.06
21204 H 25.676977155345924 98.4217802737725 103.87601140103737 H 0.0 **** 0.06
21205 H 27.059600805507145 98.61142082595028 102.76984115414182 H 0.0 **** 0.06
21206 C 94.5599734002538 88.6552794734252 43.58290722573821 C 0.0 **** -0.24
21207 H 95.00384522498388 87.91806618697908 44.251158577150306 H 0.0 **** 0.06
21208 H 94.30713502120295 89.553377740361 44.14875610875464 H 0.0 **** 0.06
21209 H 93.65671186075544 88.24208330446483 43.13496970389633 H 0.0 **** 0.06
21210 H 95.27222611750716 88.90982838031016 42.797740681389 H 0.0 **** 0.06
21211 C 45.48776850229391 69.25405213936625 108.7905639367808 C 0.0 **** -0.24
21212 H 44.91270563185475 69.79030317401973 109.54611283305809 H 0.0 **** 0.06
21213 H 46.46862950928881 69.71699641036774 108.68519407742704 H 0.0 **** 0.06
21214 H 44.96084979273454 69.29497110715039 107.83681663586705 H 0.0 **** 0.06
21215 H 45.60609560543656 68.21430746388653 109.09556764220308 H 0.0 **** 0.06
21216 C 83.9394844960385 82.30340109380906 78.05154482297544 C 0.0 **** -0.24
21217 H 83.06700290165855 81.6837317384113 77.84488011515265 H 0.0 **** 0.06
21218 H 83.9713375162691 82.54354496208761 79.11439470649483 H 0.0 **** 0.06
21219 H 83.87488533630216 83.22508938491444 77.47182826239465 H 0.0 **** 0.06
21220 H 84.8429087926442 81.76163528604357 77.77271177986583 H 0.0 **** 0.06
21221 C 91.29168439805198 101.56279116082037 107.88405044633731 C 0.0 **** -0.24
21222 H 92.02717510945664 100.8802766980303 108.30877143956442 H 0.0 **** 0.06
21223 H 91.73120920814505 102.0876694868085 107.0353665910805 H 0.0 **** 0.06
21224 H 90.98660958894585 102.28537283373812 108.64002105451434 H 0.0 **** 0.06
21225 H 90.42120183968603 100.99658092528966 107.55027996860551 H 0.0 **** 0.06
21226 C 36.685773055790015 88.50760992364846 82.8577800968115 C 0.0 **** -0.24
21227 H 35.92338354655304 89.27729575409843 82.73918629044954 H 0.0 **** 0.06
21228 H 36.213682644182185 87.57236792615697 83.16160521635288 H 0.0 **** 0.06
21229 H 37.40017170904691 88.81842963193508 83.61894113568991 H 0.0 **** 0.06
21230 H 37.20424640643233 88.36049060680513 81.90998376650478 H 0.0 **** 0.06
21231 C 23.933385076710056 29.838182706524037 1.2720508796243877 C 0.0 **** -0.24
21232 H 23.256769896937698 29.669788079065654 2.1092250794400513 H 0.0 **** 0.06
21233 H 24.861365187840597 29.291084100370142 1.4384647785357458 H 0.0 **** 0.06
21234 H 24.149560141415378 30.902980099007948 1.1877159399434873 H 0.0 **** 0.06
21235 H 23.46580433697821 29.488706187648518 0.35139460058812233 H 0.0 **** 0.06
21236 C 103.03652044037277 14.090082580629996 60.38253326597243 C 0.0 **** -0.24
21237 H 102.83054642616604 13.112172817801593 60.81831278101629 H 0.0 **** 0.06
21238 H 103.52714705525864 13.96130648015577 59.417381031636864 H 0.0 **** 0.06
21239 H 103.68948006189952 14.654444590584518 61.048467062500094 H 0.0 **** 0.06
21240 H 102.10104786238654 14.63226524397399 60.24533793933216 H 0.0 **** 0.06
21241 C 61.37895772739341 24.63858997341051 16.157335256304922 C 0.0 **** -0.24
21242 H 62.11191818120871 25.33469879978228 16.5660871041692 H 0.0 **** 0.06
21243 H 61.55564874770447 23.643740249036153 16.566905637302384 H 0.0 **** 0.06
21244 H 61.47304283188596 24.607617845512664 15.072510297007476 H 0.0 **** 0.06
21245 H 60.37511279626645 24.969110855751367 16.42592027202742 H 0.0 **** 0.06
21246 C 44.892689667696374 100.66394223790533 2.082578382585517 C 0.0 **** -0.24
21247 H 45.27546388390232 100.8944584148648 3.0772556160680065 H 0.0 **** 0.06
21248 H 44.99568945142826 101.5405178141663 1.4416548668892428 H 0.0 **** 0.06
21249 H 43.841140432794646 100.38644445357164 2.1536608977737757 H 0.0 **** 0.06
21250 H 45.459494688404334 99.83447268006283 1.658703490829307 H 0.0 **** 0.06
21251 C 100.14676839942065 78.13766962292243 8.386805370941175 C 0.0 **** -0.24
21252 H 100.96198996987681 78.6071736614476 8.93845958647006 H 0.0 **** 0.06
21253 H 100.17171120401356 77.05962087336565 8.550431128321236 H 0.0 **** 0.06
21254 H 100.25915955679038 78.34728004212928 7.323258366255018 H 0.0 **** 0.06
21255 H 99.19465285697025 78.53618673964573 8.737445736857069 H 0.0 **** 0.06
21256 C 99.39134229807158 31.818001504605718 89.56519341982721 C 0.0 **** -0.24
21257 H 99.44119862621949 31.025067832624217 90.31131947010516 H 0.0 **** 0.06
21258 H 99.82787963959834 31.46540592609196 88.63046720859154 H 0.0 **** 0.06
21259 H 99.94532836017166 32.68665067880849 89.92103272012713 H 0.0 **** 0.06
21260 H 98.35032603247322 32.094745133870845 89.39955939028997 H 0.0 **** 0.06
21261 C 47.22435409158987 22.58452236189322 3.7458610374123094 C 0.0 **** -0.24
21262 H 47.022437459902335 22.00983185705482 4.650711382929483 H 0.0 **** 0.06
21263 H 47.54156697837226 23.59131869459216 4.019762023658005 H 0.0 **** 0.06
21264 H 46.31948655455358 22.639354690271205 3.1417305595434044 H 0.0 **** 0.06
21265 H 48.01407057172793 22.097183691347283 3.175578338212782 H 0.0 **** 0.06
21266 C 2.4664101011875914 78.75901185380818 111.18262382232086 C 0.0 **** -0.24
21267 H 2.659874475543134 79.25464912737789 110.23012872533585 H 0.0 **** 0.06
21268 H 2.632887660358989 77.68738617608403 111.07371020940843 H 0.0 **** 0.06
21269 H 1.4344738283153617 78.93801619434856 111.4823994966093 H 0.0 **** 0.06
21270 H 3.140138826023133 79.15628756599443 111.94110922591696 H 0.0 **** 0.06
21271 C 54.44951015242683 104.89564922436811 17.361233844757777 C 0.0 **** -0.24
21272 H 55.18093787708351 105.58952855889521 16.94708592490764 H 0.0 **** 0.06
21273 H 54.96746145798605 104.04875349967362 17.811729849842294 H 0.0 **** 0.06
21274 H 53.79519274656392 104.53978109970654 16.56478910659689 H 0.0 **** 0.06
21275 H 53.8549835250166 105.40459151189499 18.120022616072475 H 0.0 **** 0.06
21276 C 112.96822562666354 33.08851749311697 55.22910882182581 C 0.0 **** -0.24
21277 H 113.30370565771194 33.061214576039504 56.26572651428134 H 0.0 **** 0.06
21278 H 113.70169748344861 33.62459445604998 54.62475857472133 H 0.0 **** 0.06
21279 H 112.00757500601821 33.599359545171296 55.17105466991865 H 0.0 **** 0.06
21280 H 112.86299062407488 32.0708347362833 54.85396762226694 H 0.0 **** 0.06
21281 C 22.51514532717548 46.821536644451896 16.632812120370033 C 0.0 **** -0.24
21282 H 21.697656730532813 46.12475975314629 16.450875749379207 H 0.0 **** 0.06
21283 H 23.33542320437528 46.60471220152215 15.948132669353498 H 0.0 **** 0.06
21284 H 22.861921865400504 46.71346578907492 17.660593851247654 H 0.0 **** 0.06
21285 H 22.166787506817034 47.84153552160373 16.470785369163764 H 0.0 **** 0.06
21286 C 74.08297659665271 28.146478441919953 47.39214174756745 C 0.0 **** -0.24
21287 H 74.23222564045075 27.410662202396452 46.60286761497815 H 0.0 **** 0.06
21288 H 73.41964658566293 27.734509093680572 48.152832961098795 H 0.0 **** 0.06
21289 H 73.63730789409755 29.047070988650034 46.96985153742884 H 0.0 **** 0.06
21290 H 75.04346205285087 28.39496123854036 47.84390668358617 H 0.0 **** 0.06
21291 C 21.102293003997204 43.400468745470164 49.45633688627049 C 0.0 **** -0.24
21292 H 20.33436225114417 42.7331425773732 49.06526823352277 H 0.0 **** 0.06
21293 H 21.587046833874695 43.92074554321812 48.63004677325378 H 0.0 **** 0.06
21294 H 21.843583528688498 42.81849560277169 50.00469736885324 H 0.0 **** 0.06
21295 H 20.644648747009626 44.128412082147236 50.12611952116666 H 0.0 **** 0.06
21296 C 28.328685222740603 91.92429971269098 36.060784165830086 C 0.0 **** -0.24
21297 H 28.294925582404176 91.80048835805361 37.14401622279814 H 0.0 **** 0.06
21298 H 27.42850636122091 92.44183776786214 35.72675867878549 H 0.0 **** 0.06
21299 H 28.383215573492294 90.94544387751371 35.585486166116794 H 0.0 **** 0.06
21300 H 29.20669363737335 92.51081237241063 35.790057952017534 H 0.0 **** 0.06
21301 C 57.21061648224219 29.4353260532355 3.8641398015185473 C 0.0 **** -0.24
21302 H 56.241297021297584 29.857947410577538 3.5990425632723486 H 0.0 **** 0.06
21303 H 57.99103297833037 30.176108002604238 3.687174244507503 H 0.0 **** 0.06
21304 H 57.401606908065474 28.553103479816343 3.2529364334267257 H 0.0 **** 0.06
21305 H 57.20852902127518 29.154145319943737 4.917405964867839 H 0.0 **** 0.06
21306 C 79.49739299009384 73.58863362563906 1.4162839252093704 C 0.0 **** -0.24
21307 H 80.43615319728099 73.20269609167065 1.8132852247387348 H 0.0 **** 0.06
21308 H 79.70751047142184 74.36649169074016 0.6811559667351474 H 0.0 **** 0.06
21309 H 78.90432777617227 74.00703510862593 2.2294963237183936 H 0.0 **** 0.06
21310 H 78.94392024382279 72.77854854760989 0.9418836590853772 H 0.0 **** 0.06
21311 C 71.74199383098136 16.211035640762105 51.00383183168617 C 0.0 **** -0.24
21312 H 71.33535613184199 17.21442651437812 50.87702056373246 H 0.0 **** 0.06
21313 H 71.11413149561315 15.650865671632033 51.697583311186825 H 0.0 **** 0.06
21314 H 72.75407624083397 16.27745505306811 51.40225268332408 H 0.0 **** 0.06
21315 H 71.76222275627771 15.70319019878076 50.03988094159455 H 0.0 **** 0.06
21316 C 70.12695914348956 27.78234287561864 73.52765843264393 C 0.0 **** -0.24
21317 H 71.16468830046813 27.45898037905757 73.61352162244822 H 0.0 **** 0.06
21318 H 69.46631284024573 26.94960585374266 73.77134293330971 H 0.0 **** 0.06
21319 H 69.93244826861684 28.11407230437529 72.50837310117615 H 0.0 **** 0.06
21320 H 69.94400447486777 28.60500334477159 74.21878568887976 H 0.0 **** 0.06
21321 C 18.575908566746975 11.890839275496745 61.643223394189306 C 0.0 **** -0.24
21322 H 18.079764573940523 10.920447780823523 61.661168916202115 H 0.0 **** 0.06
21323 H 17.856754705297433 12.660574455688007 61.36109913721941 H 0.0 **** 0.06
21324 H 19.389349627047764 11.869072830917062 60.91883306491428 H 0.0 **** 0.06
21325 H 18.975227524036868 12.112278568454201 62.633054477138046 H 0.0 **** 0.06
21326 C 30.570036785990453 49.8744427953328 36.71905504811349 C 0.0 **** -0.24
21327 H 30.29840402916335 50.307922210442975 37.68181193534764 H 0.0 **** 0.06
21328 H 29.7839804570835 50.08284566405748 35.99237470649592 H 0.0 **** 0.06
21329 H 30.689140997648863 48.79619255713725 36.82668488261328 H 0.0 **** 0.06
21330 H 31.507758500441327 50.31122335350984 36.37505751440381 H 0.0 **** 0.06
21331 C 55.748091451323816 87.96050790014758 84.34065949014172 C 0.0 **** -0.24
21332 H 56.25388082446321 87.53086205953801 85.20616234746187 H 0.0 **** 0.06
21333 H 55.189767043535646 87.18052579488199 83.82141444503368 H 0.0 **** 0.06
21334 H 56.48752261450194 88.38980813108427 83.66474277158768 H 0.0 **** 0.06
21335 H 55.061801074927764 88.7394657798784 84.67164385614146 H 0.0 **** 0.06
21336 C 18.21496655897093 48.56401578303482 65.24201623626462 C 0.0 **** -0.24
21337 H 18.561000902717467 48.21349739150659 64.27050681820535 H 0.0 **** 0.06
21338 H 17.125738365524853 48.53026654606194 65.27315318936022 H 0.0 **** 0.06
21339 H 18.552152978275416 49.588202251580356 65.40047421500776 H 0.0 **** 0.06
21340 H 18.620960126798025 47.92323264127913 66.02543170915015 H 0.0 **** 0.06
21341 C 59.7507236294299 18.403815078490652 30.776303976029 C 0.0 **** -0.24
21342 H 60.112040190623645 19.290363232786888 30.253721587744877 H 0.0 **** 0.06
21343 H 60.43766620217059 17.575684645407136 30.601037153470827 H 0.0 **** 0.06
21344 H 58.76141829262366 18.141314809544554 30.403495675340224 H 0.0 **** 0.06
21345 H 59.693908268448126 18.610003177100452 31.844726640267226 H 0.0 **** 0.06
21346 C 34.58005931263598 66.34135879694753 86.34873786439113 C 0.0 **** -0.24
21347 H 33.843628957324846 66.34140033222013 87.15168046765571 H 0.0 **** 0.06
21348 H 35.577239260140054 66.21503839970683 86.770500676522 H 0.0 **** 0.06
21349 H 34.530180253257605 67.28831044327785 85.81091704552178 H 0.0 **** 0.06
21350 H 34.36861543727394 65.5213791737632 85.6622901463001 H 0.0 **** 0.06
21351 C 86.37670509208277 0.14420022767626506 83.91883549093077 C 0.0 **** -0.24
21352 H 86.9130816271159 -0.7935698082331726 83.7739212848735 H 0.0 **** 0.06
21353 H 87.06843430068045 0.9799320701880418 83.80539986911697 H 0.0 **** 0.06
21354 H 85.94366571573232 0.16384087623745813 84.91888183577865 H 0.0 **** 0.06
21355 H 85.5829386993984 0.22611671427557667 83.17685832694156 H 0.0 **** 0.06
21356 C 44.62780716886809 22.581740476951268 37.071854748316795 C 0.0 **** -0.24
21357 H 43.74158389769906 21.993924067419044 36.83289506165562 H 0.0 **** 0.06
21358 H 45.45629335172373 21.912060759705582 37.301924862915826 H 0.0 **** 0.06
21359 H 44.42242560777947 23.215554418367162 37.93507251333388 H 0.0 **** 0.06
21360 H 44.89092581827012 23.205422662313254 36.2175265553617 H 0.0 **** 0.06
21361 C 11.878468671729035 71.32273254147964 33.272949597006004 C 0.0 **** -0.24
21362 H 11.303043368076334 70.49004623620152 32.86761167681419 H 0.0 **** 0.06
21363 H 12.895744696880914 70.99130234376071 33.4843571181687 H 0.0 **** 0.06
21364 H 11.411648131439616 71.6731894007147 34.19262727899408 H 0.0 **** 0.06
21365 H 11.903845030204437 72.13412767409216 32.54527689811911 H 0.0 **** 0.06
21366 C 28.821039920334186 34.273383780126835 2.011477262876163 C 0.0 **** -0.24
21367 H 27.908287929534765 33.68142901345584 2.0761834412469984 H 0.0 **** 0.06
21368 H 29.39505154172116 34.15669783065357 2.9309252624089055 H 0.0 **** 0.06
21369 H 28.56364302868218 35.324080911890604 1.875201914371523 H 0.0 **** 0.06
21370 H 29.415907378682107 33.9321668201037 1.1648957934160968 H 0.0 **** 0.06
21371 C 56.354063636312034 17.342897568779247 0.41803313531204367 C 0.0 **** -0.24
21372 H 56.989562684941035 17.697305527948842 -0.39347441638227565 H 0.0 **** 0.06
21373 H 56.73166309441456 16.3889638751246 0.7853568033250298 H 0.0 **** 0.06
21374 H 55.334961258933035 17.214027660195686 0.052267508086259795 H 0.0 **** 0.06
21375 H 56.35948130201322 18.072407083233404 1.2286274469797434 H 0.0 **** 0.06
21376 C 78.50199122415479 51.62651623430688 74.63543084956135 C 0.0 **** -0.24
21377 H 77.9224737284717 52.034416138983204 73.80691969971159 H 0.0 **** 0.06
21378 H 78.37450623746679 52.2601361855381 75.51332942483491 H 0.0 **** 0.06
21379 H 79.55527354089595 51.59416553735326 74.35951190984873 H 0.0 **** 0.06
21380 H 78.1537400950773 50.618607887955534 74.86008490266106 H 0.0 **** 0.06
21381 C 68.90584923674038 68.24159935768895 44.68044115191043 C 0.0 **** -0.24
21382 H 68.67079055015219 67.81548148650587 45.655467558682346 H 0.0 **** 0.06
21383 H 69.95989369106125 68.07408350787622 44.45618604249768 H 0.0 **** 0.06
21384 H 68.7019671982542 69.31136363789795 44.6922284153307 H 0.0 **** 0.06
21385 H 68.29108001857854 67.76178037731648 43.917349254694216 H 0.0 **** 0.06
21386 C 97.48981501353768 53.00855758015297 58.92552438909111 C 0.0 **** -0.24
21387 H 98.21336849842476 52.240207955540086 59.19543860838644 H 0.0 **** 0.06
21388 H 97.88274700403412 53.98892963397242 59.195538573589204 H 0.0 **** 0.06
21389 H 96.5566016031201 52.83156775496445 59.460510281170144 H 0.0 **** 0.06
21390 H 97.30572725702905 52.9731379407786 57.851698654040874 H 0.0 **** 0.06
21391 C 75.06195664916683 97.07012257597108 6.46487732820421 C 0.0 **** -0.24
21392 H 74.73070414119809 97.1338631675975 7.501400589399367 H 0.0 **** 0.06
21393 H 75.0348638178645 98.06199467809606 6.013696360087181 H 0.0 **** 0.06
21394 H 74.39994415514877 96.40160417257994 5.91332385903965 H 0.0 **** 0.06
21395 H 76.07956443034857 96.6831701052734 6.4322791395617 H 0.0 **** 0.06
21396 C 96.05185563926189 93.98730746301095 10.156534917642915 C 0.0 **** -0.24
21397 H 95.88501412384731 94.90447829172626 9.591530366105218 H 0.0 **** 0.06
21398 H 96.44988344793853 94.2350743962856 11.140991627573015 H 0.0 **** 0.06
21399 H 96.76279001619311 93.35572242273281 9.624499991979036 H 0.0 **** 0.06
21400 H 95.1070924693922 93.45403465661542 10.270123301092724 H 0.0 **** 0.06
21401 C 74.31157003016034 100.20363337658438 36.45255360841236 C 0.0 **** -0.24
21402 H 75.37984060048112 100.41861607798296 36.47112675027324 H 0.0 **** 0.06
21403 H 74.150232312861 99.19831858008303 36.061404090891756 H 0.0 **** 0.06
21404 H 73.80584657139022 100.92792751767996 35.81514067148464 H 0.0 **** 0.06
21405 H 73.9119163465341 100.2682529562698 37.4644319508119 H 0.0 **** 0.06
21406 C 105.26734379048911 93.22552723608138 82.28631709172427 C 0.0 **** -0.24
21407 H 104.68187739479694 92.57908967054334 81.63205402368949 H 0.0 **** 0.06
21408 H 104.83489331148958 93.21613586742302 83.28680094349971 H 0.0 **** 0.06
21409 H 105.25728978230894 94.24326106099852 81.89522583082565 H 0.0 **** 0.06
21410 H 106.29391760031304 92.8628036796461 82.32964540882014 H 0.0 **** 0.06
21411 C 91.18117225651866 100.50078720891156 90.37513794336633 C 0.0 **** -0.24
21412 H 91.70539878210695 100.62234878623633 89.42737854778716 H 0.0 **** 0.06
21413 H 91.25660114843782 101.42312755334945 90.95230811445106 H 0.0 **** 0.06
21414 H 91.63298724768862 99.68211295687212 90.93727170432987 H 0.0 **** 0.06
21415 H 90.13236777083034 100.274871178029 90.18424107072116 H 0.0 **** 0.06
21416 C 73.03957592128415 90.20059597906061 32.407793978314714 C 0.0 **** -0.24
21417 H 72.20687120463043 90.87290152688684 32.20103406543626 H 0.0 **** 0.06
21418 H 72.93865695687401 89.79708249260315 33.415459498105434 H 0.0 **** 0.06
21419 H 73.97814159044123 90.74989035457634 32.328751129770154 H 0.0 **** 0.06
21420 H 73.03375258493747 89.38335521957131 31.686644079487024 H 0.0 **** 0.06
21421 C 37.81864374447696 108.89555358504654 34.90279396620975 C 0.0 **** -0.24
21422 H 36.9430377457125 108.74049382026982 34.27223534756912 H 0.0 **** 0.06
21423 H 37.563265508199635 109.57272216045604 35.717857909197704 H 0.0 **** 0.06
21424 H 38.62174436635274 109.32955554736536 34.30766691425008 H 0.0 **** 0.06
21425 H 38.145320323715964 107.93943305068801 35.31267874908991 H 0.0 **** 0.06
21426 C 1.237930117609011 27.292515901855097 35.14726184235309 C 0.0 **** -0.24
21427 H 0.8895831546399222 26.35290606668832 35.575308881017975 H 0.0 **** 0.06
21428 H 2.0583446803518655 27.683777089694217 35.750294411583866 H 0.0 **** 0.06
21429 H 0.4192418736979846 28.01246720331551 35.13634072125103 H 0.0 **** 0.06
21430 H 1.5848601658416896 27.120883185284413 34.128483021852105 H 0.0 **** 0.06
21431 C 82.91200316730419 79.32572120301913 43.34267534529 C 0.0 **** -0.24
21432 H 83.13692532022367 79.07760030654197 42.304400951206986 H 0.0 **** 0.06
21433 H 82.56865638649964 80.3584771118098 43.40195239352249 H 0.0 **** 0.06
21434 H 83.81146309816202 79.20624457933175 43.94681004341855 H 0.0 **** 0.06
21435 H 82.13294379309818 78.66110601309327 43.714407268375275 H 0.0 **** 0.06
21436 C 66.47145762219033 27.233049769991425 80.4751686867331 C 0.0 **** -0.24
21437 H 66.03924646941108 27.367791632509068 81.46681969246283 H 0.0 **** 0.06
21438 H 67.53205577708009 26.997042037371955 80.56987634068031 H 0.0 **** 0.06
21439 H 66.35226476047421 28.1500253716155 79.8992856415774 H 0.0 **** 0.06
21440 H 65.9620266607354 26.41484187832856 79.96599827970218 H 0.0 **** 0.06
21441 C 86.34324253009038 97.83997142363947 5.887235374621227 C 0.0 **** -0.24
21442 H 85.37463113063598 97.64414514163384 6.347445752927101 H 0.0 **** 0.06
21443 H 87.1379727154897 97.56329870403985 6.58057997613443 H 0.0 **** 0.06
21444 H 86.42358197820988 98.90044641308087 5.647621215515315 H 0.0 **** 0.06
21445 H 86.43662348937107 97.25398158111307 4.973466587263744 H 0.0 **** 0.06
21446 C 32.06697882741008 5.748202298878736 21.50271348293508 C 0.0 **** -0.24
21447 H 32.785167440213 4.9798778561096615 21.21383755029005 H 0.0 **** 0.06
21448 H 31.831296971319716 6.3673683876947145 20.636895374469606 H 0.0 **** 0.06
21449 H 32.496255624004675 6.369587000739465 22.288670886167136 H 0.0 **** 0.06
21450 H 31.15722910740709 5.2745444902773535 21.8697723383094 H 0.0 **** 0.06
21451 C 79.57994166026583 109.59744401768667 80.10240071664619 C 0.0 **** -0.24
21452 H 78.96700603249401 109.73278214805882 79.21176947352483 H 0.0 **** 0.06
21453 H 79.43383034926606 108.59028352639774 80.49426785063451 H 0.0 **** 0.06
21454 H 79.2874839256625 110.32642680253176 80.85782715209004 H 0.0 **** 0.06
21455 H 80.6294268778955 109.73967647524026 79.8464823593592 H 0.0 **** 0.06
21456 C 0.8272910234753539 103.74320792972117 49.79117937682179 C 0.0 **** -0.24
21457 H -0.24486395760813195 103.69950114704747 49.981305487060226 H 0.0 **** 0.06
21458 H 1.0010632951704395 104.07627605805288 48.76784102230445 H 0.0 **** 0.06
21459 H 1.260328703870556 102.75248017338919 49.93055819991892 H 0.0 **** 0.06
21460 H 1.2904284105786843 104.44264682872665 50.48565430233981 H 0.0 **** 0.06
21461 C 86.41098650491026 59.28024747002331 92.23210427673462 C 0.0 **** -0.24
21462 H 85.68857582228715 59.982555218220284 91.81664288873272 H 0.0 **** 0.06
21463 H 86.30043177257913 59.244136087277724 93.31611866888187 H 0.0 **** 0.06
21464 H 87.42078453735232 59.60549276380158 91.98061268234282 H 0.0 **** 0.06
21465 H 86.23415388742224 58.288805810793406 91.81504286698113 H 0.0 **** 0.06
21466 C 27.778775688292313 33.90762126390342 108.84583425884693 C 0.0 **** -0.24
21467 H 27.47468627783583 33.54738046972261 109.82826121043803 H 0.0 **** 0.06
21468 H 28.189162508265213 34.91378051003528 108.93942840886584 H 0.0 **** 0.06
21469 H 26.912364883505518 33.928399545801426 108.1835146765448 H 0.0 **** 0.06
21470 H 28.536536102804376 33.24278451495519 108.43219944395716 H 0.0 **** 0.06
21471 C 78.45712327032516 18.719501192720056 1.74038736497522 C 0.0 **** -0.24
21472 H 77.7375266898199 18.22291666656538 1.0898505896619781 H 0.0 **** 0.06
21473 H 79.46861622013449 18.451692344102128 1.4344036924362058 H 0.0 **** 0.06
21474 H 78.29342489829295 18.404336205894865 2.771147500053928 H 0.0 **** 0.06
21475 H 78.329016737932 19.80003479244848 1.6659461792960997 H 0.0 **** 0.06
21476 C 47.890969459339885 6.056212431857318 75.25151302868005 C 0.0 **** -0.24
21477 H 47.19537327826788 6.864783918474501 75.47573534585575 H 0.0 **** 0.06
21478 H 48.60239561536787 5.952094962959308 76.07062530457219 H 0.0 **** 0.06
21479 H 48.42809902292868 6.28494446092472 74.33022472961471 H 0.0 **** 0.06
21480 H 47.338244405127284 5.124513934427654 75.12781370766038 H 0.0 **** 0.06
21481 C 69.44528617578544 1.3504362718885403 63.593558938619694 C 0.0 **** -0.24
21482 H 69.16549351385731 2.3847884250558167 63.79568092148186 H 0.0 **** 0.06
21483 H 69.48900407829052 1.1902076930769425 62.51664108747842 H 0.0 **** 0.06
21484 H 68.704798800835 0.6818181458485242 64.03201278498761 H 0.0 **** 0.06
21485 H 70.42309226721639 1.1473956808303 64.03144291324097 H 0.0 **** 0.06
21486 C 102.56523531981873 50.03648842343296 6.386145829752877 C 0.0 **** -0.24
21487 H 102.24880373841842 49.77909906909176 7.397152433098995 H 0.0 **** 0.06
21488 H 102.8049834566533 49.12637283105116 5.837459287088365 H 0.0 **** 0.06
21489 H 103.44845571056993 50.675448830558395 6.434073256343396 H 0.0 **** 0.06
21490 H 101.76080626347624 50.56747888655161 5.87778912396135 H 0.0 **** 0.06
21491 C 60.11437775150597 51.33116222278261 60.976742652958876 C 0.0 **** -0.24
21492 H 59.31089515802242 50.60153538249 60.87275713961566 H 0.0 **** 0.06
21493 H 61.019496474734865 50.82885374250071 61.3202727460729 H 0.0 **** 0.06
21494 H 59.82387985774909 52.09080394124413 61.70122376791505 H 0.0 **** 0.06
21495 H 60.30388971733112 51.80240112325123 60.01203508158086 H 0.0 **** 0.06
21496 C 67.88221183843956 13.08949786149509 6.939053896433862 C 0.0 **** -0.24
21497 H 68.84838265118896 13.417102626708598 6.554744573895306 H 0.0 **** 0.06
21498 H 67.08584626588765 13.513862363270121 6.326060985392061 H 0.0 **** 0.06
21499 H 67.76742409930159 13.427412191234811 7.969167607261284 H 0.0 **** 0.06
21500 H 67.82769673879523 12.001704054607092 6.9035256097368745 H 0.0 **** 0.06
21501 C 114.73253350657781 95.90629401519908 62.32862762024507 C 0.0 **** -0.24
21502 H 115.66674278053723 95.50649623673326 62.72044289470978 H 0.0 **** 0.06
21503 H 114.40864647261809 96.74479132648835 62.94486213801321 H 0.0 **** 0.06
21504 H 113.96862092645102 95.12810328584504 62.34482598111612 H 0.0 **** 0.06
21505 H 114.88404246229207 96.24500750504791 61.30412788106446 H 0.0 **** 0.06
21506 C 34.46580951955431 69.54369029457811 0.7993351435305414 C 0.0 **** -0.24
21507 H 34.58194601157089 69.4268857785512 1.8772598294007992 H 0.0 **** 0.06
21508 H 34.02771184647423 68.63817523809149 0.3808516867006375 H 0.0 **** 0.06
21509 H 35.44200489685315 69.71900211423274 0.34673937474134675 H 0.0 **** 0.06
21510 H 33.812594659751994 70.39270145702574 0.5944765942024759 H 0.0 **** 0.06
21511 C 43.37423277108225 52.879010884983245 97.14929575251473 C 0.0 **** -0.24
21512 H 42.640207834253715 52.70613925863165 97.93544857993933 H 0.0 **** 0.06
21513 H 43.80259133178049 53.87522413940701 97.26583213951572 H 0.0 **** 0.06
21514 H 42.88892139552634 52.8039200343664 96.17662327989426 H 0.0 **** 0.06
21515 H 44.16539079908226 52.132775791703125 97.22023022155253 H 0.0 **** 0.06
21516 C 9.930432684271224 109.25879979542407 62.45706142246948 C 0.0 **** -0.24
21517 H 9.828271621083609 109.97405661389678 63.27395518884953 H 0.0 **** 0.06
21518 H 9.222281614151132 108.44180719626951 62.60012359058726 H 0.0 **** 0.06
21519 H 10.94563658223218 108.86286074403864 62.445666901846124 H 0.0 **** 0.06
21520 H 9.724398608084964 109.75804145275418 61.5099968466391 H 0.0 **** 0.06
21521 C 86.217341403716 97.4054122900684 2.1342187625020017 C 0.0 **** -0.24
21522 H 87.09084936861373 97.28144138117511 2.7749891211748263 H 0.0 **** 0.06
21523 H 85.64486993199228 96.47774192879729 2.1181970708971676 H 0.0 **** 0.06
21524 H 86.54149544232968 97.65030758972864 1.122746070358744 H 0.0 **** 0.06
21525 H 85.59402221815807 98.21107133562259 2.5215057633775473 H 0.0 **** 0.06
21526 C 83.62657227914228 52.440206010141424 24.88212717112333 C 0.0 **** -0.24
21527 H 84.32675844904226 51.91877954571248 25.53449769683988 H 0.0 **** 0.06
21528 H 83.69846640720256 53.51402997355538 25.056984044311633 H 0.0 **** 0.06
21529 H 82.61224215206155 52.10441257996359 25.09654193485288 H 0.0 **** 0.06
21530 H 83.86933250097495 52.22361587708207 23.84134487006898 H 0.0 **** 0.06
21531 C 84.29898677399302 25.998441542837156 90.55799962957036 C 0.0 **** -0.24
21532 H 83.96284163412997 26.931861286089656 91.00974579227528 H 0.0 **** 0.06
21533 H 85.26048213930778 25.713359791086248 90.98561235105575 H 0.0 **** 0.06
21534 H 84.40503835536964 26.13541402248569 89.48152009114966 H 0.0 **** 0.06
21535 H 83.56602052246006 25.21669614184492 90.75376243469637 H 0.0 **** 0.06
21536 C 98.08295946111144 5.761062897618103 31.75657621688407 C 0.0 **** -0.24
21537 H 97.26626953790316 5.057478118593224 31.5947844148983 H 0.0 **** 0.06
21538 H 99.03476439628707 5.234063535730684 31.68637921045024 H 0.0 **** 0.06
21539 H 97.98614132347177 6.208853169416841 32.745071848091015 H 0.0 **** 0.06
21540 H 98.04311930638781 6.543277063017115 30.99777098505615 H 0.0 **** 0.06
21541 C 18.123780579328695 20.296314687623465 93.30136465211109 C 0.0 **** -0.24
21542 H 18.491179870360156 19.33174015119431 92.95141856439096 H 0.0 **** 0.06
21543 H 18.53465343576613 21.090168221990723 92.67594260768698 H 0.0 **** 0.06
21544 H 18.434607694576357 20.450503255230217 94.3350348061428 H 0.0 **** 0.06
21545 H 17.035544374919198 20.313222723568174 93.24272482740889 H 0.0 **** 0.06
21546 C 1.8880312072273284 42.11741215593861 53.97695701237461 C 0.0 **** -0.24
21547 H 2.1465788658797145 42.026566161295875 52.92172590186141 H 0.0 **** 0.06
21548 H 1.0265821760687572 41.48493127940111 54.19563066511415 H 0.0 **** 0.06
21549 H 1.6432415318577505 43.155404949274555 54.20243103503435 H 0.0 **** 0.06
21550 H 2.7350745462220765 41.802262681410696 54.58687994585847 H 0.0 **** 0.06
21551 C 104.93119490340166 62.66431706923157 11.873379856825817 C 0.0 **** -0.24
21552 H 104.6793300192059 61.6838265719651 12.277828907500432 H 0.0 **** 0.06
21553 H 105.77137141340893 63.081349683486025 12.4295388655474 H 0.0 **** 0.06
21554 H 104.07054717384926 63.32675101239117 11.964436404590948 H 0.0 **** 0.06
21555 H 105.20453237103368 62.565318158956785 10.822713679408277 H 0.0 **** 0.06
21556 C 54.15209062398146 66.71501463987674 44.194822649083676 C 0.0 **** -0.24
21557 H 54.695187731483244 65.89868935903591 44.6720732950501 H 0.0 **** 0.06
21558 H 53.43004172405994 66.30529000586492 43.48700926589078 H 0.0 **** 0.06
21559 H 54.85450054780737 67.35822475942052 43.66612849301379 H 0.0 **** 0.06
21560 H 53.62778897341801 67.29489833530837 44.95482151109056 H 0.0 **** 0.06
21561 C 63.300267869976324 3.8869330907146207 79.88021131446823 C 0.0 **** -0.24
21562 H 62.74595929399206 4.230493520577895 79.00638991934794 H 0.0 **** 0.06
21563 H 62.82317864489309 4.264349679199086 80.78441047256803 H 0.0 **** 0.06
21564 H 64.3241412383809 4.2566412644285805 79.82785937692682 H 0.0 **** 0.06
21565 H 63.30695775702391 2.7972771992241547 79.89949391222318 H 0.0 **** 0.06
21566 C 88.79142098039937 40.27077610241912 39.04133301655796 C 0.0 **** -0.24
21567 H 88.67428665736794 41.2804518170106 39.4341217876256 H 0.0 **** 0.06
21568 H 88.93020909673935 39.57307377467231 39.86721307820744 H 0.0 **** 0.06
21569 H 89.66091903428283 40.23524230844953 38.38529642191003 H 0.0 **** 0.06
21570 H 87.9002305472196 39.99422969490149 38.47729109218406 H 0.0 **** 0.06
21571 C 50.220259146639755 95.91850915799255 66.43405310695584 C 0.0 **** -0.24
21572 H 49.56964944036837 95.99507109990465 65.56301991635428 H 0.0 **** 0.06
21573 H 50.824948083712385 95.01455959210826 66.35805934923673 H 0.0 **** 0.06
21574 H 49.61234811784306 95.87357250276025 67.3383365251978 H 0.0 **** 0.06
21575 H 50.87318064256326 96.78981567175977 66.47883031469473 H 0.0 **** 0.06
21576 C 30.744044443456573 21.44231588013855 24.773411349175774 C 0.0 **** -0.24
21577 H 31.065144640029814 20.442694876420546 25.067338386204767 H 0.0 **** 0.06
21578 H 30.41927208435527 21.99265530472124 25.656044878039324 H 0.0 **** 0.06
21579 H 29.916448213305785 21.363574615193016 24.06842847848796 H 0.0 **** 0.06
21580 H 31.574756053645103 21.96665406785388 24.301495871802103 H 0.0 **** 0.06
21581 C 115.71370189753756 37.291679908060246 113.71469200574417 C 0.0 **** -0.24
21582 H 116.01411984359277 36.24940148838539 113.60922501628929 H 0.0 **** 0.06
21583 H 116.58023681105556 37.89210646987226 113.9957985214618 H 0.0 **** 0.06
21584 H 114.94893489559446 37.37266208589182 114.48714969040886 H 0.0 **** 0.06
21585 H 115.31335688137763 37.65218683282592 112.76728757093224 H 0.0 **** 0.06
21586 C 25.53613389180117 100.21347287114881 32.98412209841263 C 0.0 **** -0.24
21587 H 24.561433373452253 100.50898601807779 33.37184675682255 H 0.0 **** 0.06
21588 H 26.05816029121302 99.61646292356369 33.73285248785555 H 0.0 **** 0.06
21589 H 26.12161057007917 101.10455671899027 32.75730896331257 H 0.0 **** 0.06
21590 H 25.402559743225545 99.62510922572892 32.07645712251929 H 0.0 **** 0.06
21591 C 84.93472648161227 9.006531671717113 101.76054973391615 C 0.0 **** -0.24
21592 H 84.48344527205336 8.087773296572337 101.38506882977128 H 0.0 **** 0.06
21593 H 84.16593429410744 9.773113149614346 101.86258904524846 H 0.0 **** 0.06
21594 H 85.69756240526903 9.347756074753946 101.06046128539714 H 0.0 **** 0.06
21595 H 85.39147385928231 8.816537394651618 102.73187437925333 H 0.0 **** 0.06
21596 C 56.81794569616892 83.16535943770394 101.13156637893518 C 0.0 **** -0.24
21597 H 56.29670949393068 82.85299551986948 100.22690338419666 H 0.0 **** 0.06
21598 H 56.14154322624529 83.09398131512701 101.98407824965922 H 0.0 **** 0.06
21599 H 57.15335925436199 84.1963540267159 101.01981018275183 H 0.0 **** 0.06
21600 H 57.68050798907689 82.51903304746516 101.29564280831232 H 0.0 **** 0.06
21601 C 62.806420224261075 107.27084015104404 8.633618641242332 C 0.0 **** -0.24
21602 H 62.45466462400742 106.84246381938539 7.694954013590653 H 0.0 **** 0.06
21603 H 63.55791511581674 106.61493400547258 9.072763370701022 H 0.0 **** 0.06
21604 H 61.967931746903446 107.37590781434443 9.32140956872038 H 0.0 **** 0.06
21605 H 63.2453505104142 108.25044597237172 8.443394526342566 H 0.0 **** 0.06
21606 C 7.210933230327299 104.38544830669923 54.68974808481397 C 0.0 **** -0.24
21607 H 6.642500297092624 104.82405341076087 55.51059897539079 H 0.0 **** 0.06
21608 H 7.573295105071679 105.17707528007882 54.03513134969242 H 0.0 **** 0.06
21609 H 6.567104146776444 103.7112429250586 54.12404955692705 H 0.0 **** 0.06
21610 H 8.057123043601123 103.82889142914644 55.09093098405697 H 0.0 **** 0.06
21611 C 62.48142662807504 76.07056280127483 47.95669424060759 C 0.0 **** -0.24
21612 H 63.44613599229709 75.57567910164471 48.07354279440153 H 0.0 **** 0.06
21613 H 61.80743771638177 75.4246705253799 47.39416543589272 H 0.0 **** 0.06
21614 H 62.61838661368182 77.00924203761195 47.41974283413043 H 0.0 **** 0.06
21615 H 62.055877184880444 76.27328321128653 48.93959081228547 H 0.0 **** 0.06
21616 C 39.171921227583496 33.76682735233922 39.24729633269757 C 0.0 **** -0.24
21617 H 39.8652637755514 34.27574287099082 38.578704093438944 H 0.0 **** 0.06
21618 H 38.75004820522538 34.4862261675891 39.95027225107907 H 0.0 **** 0.06
21619 H 39.703622698263075 32.98940130769797 39.79795863555029 H 0.0 **** 0.06
21620 H 38.369456434587526 33.31466247105794 38.66394501116882 H 0.0 **** 0.06
21621 C 104.30654460168527 2.7325669153285617 90.43661716942798 C 0.0 **** -0.24
21622 H 105.16167121036429 3.2145515165807126 90.90830219568606 H 0.0 **** 0.06
21623 H 104.5946028606431 2.3634174521319125 89.45210120146827 H 0.0 **** 0.06
21624 H 103.49543343754239 3.453601061282839 90.33114186337075 H 0.0 **** 0.06
21625 H 103.9732226033814 1.8991468351097893 91.0544334276501 H 0.0 **** 0.06
21626 C 6.304049464755433 7.557283701363561 74.98136579326413 C 0.0 **** -0.24
21627 H 6.037812159498291 8.608434290227311 75.0906620450363 H 0.0 **** 0.06
21628 H 7.2084032698418135 7.349900141458029 75.5530097227926 H 0.0 **** 0.06
21629 H 6.480525067425191 7.3362087496284385 73.92828325491764 H 0.0 **** 0.06
21630 H 5.488649332101689 6.935984265755813 75.35060844996622 H 0.0 **** 0.06
21631 C 49.74887242184036 32.41203665447942 66.2958385593075 C 0.0 **** -0.24
21632 H 50.080275278274655 31.411935750882243 66.01629985460664 H 0.0 **** 0.06
21633 H 48.66034302176996 32.45968739450333 66.24891544904852 H 0.0 **** 0.06
21634 H 50.175275650009155 33.140968281318074 65.6073347661956 H 0.0 **** 0.06
21635 H 50.07885981745159 32.633312977816026 67.31014747702989 H 0.0 **** 0.06
21636 C 28.17548970484563 100.2227841902837 59.325220740405186 C 0.0 **** -0.24
21637 H 27.11237067249226 100.44563474513154 59.23471048736813 H 0.0 **** 0.06
21638 H 28.37915677556515 99.82147132563617 60.31820628344799 H 0.0 **** 0.06
21639 H 28.751297139963356 101.13741731348946 59.17782433557343 H 0.0 **** 0.06
21640 H 28.458619917293618 99.4896250362649 58.57095791735786 H 0.0 **** 0.06
21641 C 51.52784175153613 73.61226423856908 7.110223968069642 C 0.0 **** -0.24
21642 H 52.20100159947168 72.92228381994276 7.619644649484792 H 0.0 **** 0.06
21643 H 52.1052446165254 74.4326957318548 6.682898907182201 H 0.0 **** 0.06
21644 H 50.80572996709873 74.00880154292801 7.824443353568716 H 0.0 **** 0.06
21645 H 51.0010834229426 73.08556047884099 6.314935765288938 H 0.0 **** 0.06
21646 C 94.62751843868455 36.776791815303824 60.28179833967161 C 0.0 **** -0.24
21647 H 93.85367619150881 37.112854493783885 60.97196759920712 H 0.0 **** 0.06
21648 H 95.25396320006136 36.032320366450065 60.771921495681624 H 0.0 **** 0.06
21649 H 95.24063446512685 37.627842563284304 59.9826227930332 H 0.0 **** 0.06
21650 H 94.16109492262677 36.3369722524001 59.39994832912292 H 0.0 **** 0.06
21651 C 73.45507738762961 46.30908146448763 70.06059088997732 C 0.0 **** -0.24
21652 H 72.39410758807253 46.23448852416675 70.30046704403533 H 0.0 **** 0.06
21653 H 73.63886804895594 45.862214775076836 69.08377735497312 H 0.0 **** 0.06
21654 H 74.03556823392552 45.78006803037272 70.81668991869243 H 0.0 **** 0.06
21655 H 73.75128010591357 47.357378740661034 70.04343689705674 H 0.0 **** 0.06
21656 C 32.791107164338484 111.66885385674969 47.19732340177217 C 0.0 **** -0.24
21657 H 31.88345418789234 111.2066183407607 47.58570590594064 H 0.0 **** 0.06
21658 H 33.10460629793161 112.47144734176264 47.8656725646527 H 0.0 **** 0.06
21659 H 32.595356007182914 112.07619418486729 46.20535167625667 H 0.0 **** 0.06
21660 H 33.580960267017616 110.9197449573215 47.13265076190169 H 0.0 **** 0.06
21661 C 26.294823180139076 29.503794151087035 114.23625655228815 C 0.0 **** -0.24
21662 H 26.938677772161668 28.671778299447396 113.9509138675446 H 0.0 **** 0.06
21663 H 26.424664281402784 30.322396662025028 113.52733000200743 H 0.0 **** 0.06
21664 H 26.562827469001206 29.84331561156597 115.23711292242515 H 0.0 **** 0.06
21665 H 25.25546250761846 29.178109742636593 114.22907912881416 H 0.0 **** 0.06
21666 C 82.42054353127081 13.121512139614449 40.06351292259555 C 0.0 **** -0.24
21667 H 83.03454651132935 12.48035148571142 40.6946633134074 H 0.0 **** 0.06
21668 H 81.91092087595672 13.86042790446026 40.68314820590234 H 0.0 **** 0.06
21669 H 81.68256791860308 12.515636167907012 39.53822268957171 H 0.0 **** 0.06
21670 H 83.0541961608168 13.631823273495737 39.33846435947345 H 0.0 **** 0.06
21671 C 15.211607033427924 68.4170294872468 14.999540654351456 C 0.0 **** -0.24
21672 H 14.336969192978216 69.03208432430051 14.790862248009379 H 0.0 **** 0.06
21673 H 14.9368940319645 67.36353563130535 14.940235865181275 H 0.0 **** 0.06
21674 H 15.583210419345164 68.64065746782452 15.99901448790736 H 0.0 **** 0.06
21675 H 15.989448467682053 68.63195216426982 14.266643311431746 H 0.0 **** 0.06
21676 C 15.833375658194075 26.778092386222767 13.797920363468535 C 0.0 **** -0.24
21677 H 15.815806283156036 27.583820546062412 14.532543440128052 H 0.0 **** 0.06
21678 H 16.865554485232163 26.550075769877225 13.533595189708194 H 0.0 **** 0.06
21679 H 15.289631190955642 27.08902855632698 12.905925856533543 H 0.0 **** 0.06
21680 H 15.361013080362063 25.89108139065246 14.219897419644468 H 0.0 **** 0.06
21681 C 86.14802687357854 79.81102456510263 109.36394470175735 C 0.0 **** -0.24
21682 H 86.853474306657 79.58899328129587 108.56376688828313 H 0.0 **** 0.06
21683 H 86.45993683345489 79.29994191217168 110.2751720576989 H 0.0 **** 0.06
21684 H 85.15364594101214 79.47006671006324 109.07702517570578 H 0.0 **** 0.06
21685 H 86.12559212073779 80.8870065365179 109.54084330139867 H 0.0 **** 0.06
21686 C 61.26808102017742 38.37989349089422 51.796940712352296 C 0.0 **** -0.24
21687 H 61.71855903307778 37.54114853504939 51.26554344749269 H 0.0 **** 0.06
21688 H 60.182113066357886 38.305921786386264 51.73727196930503 H 0.0 **** 0.06
21689 H 61.594081105781356 39.3148166555648 51.34062152374946 H 0.0 **** 0.06
21690 H 61.578238223679875 38.35686918001318 52.840736112921945 H 0.0 **** 0.06
21691 C 54.686370840432495 82.77358353787314 42.90953220106303 C 0.0 **** -0.24
21692 H 54.10640217223587 83.14939784365768 42.06650520474092 H 0.0 **** 0.06
21693 H 54.29869498935477 83.19876201042385 43.83509864094344 H 0.0 **** 0.06
21694 H 55.731257450475596 83.05795761651893 42.78770086112223 H 0.0 **** 0.06
21695 H 54.60781654891904 81.6865830337621 42.946677044112064 H 0.0 **** 0.06
21696 C 13.890662828170633 91.6128067217719 13.741093972894248 C 0.0 **** -0.24
21697 H 14.703065875095973 92.29923106931295 13.505372991241828 H 0.0 **** 0.06
21698 H 14.022760397693759 90.68734484766588 13.180454058134714 H 0.0 **** 0.06
21699 H 12.938669142883583 92.07006223666818 13.470274833297452 H 0.0 **** 0.06
21700 H 13.898556626322005 91.39478323676025 14.809169353159916 H 0.0 **** 0.06
21701 C 26.66276801711765 18.945117636475945 17.849807004315096 C 0.0 **** -0.24
21702 H 27.10866083600422 17.97369715051366 17.63925935158494 H 0.0 **** 0.06
21703 H 27.328107127082546 19.517067370155186 18.4968610565993 H 0.0 **** 0.06
21704 H 25.704014564002982 18.805259114670793 18.34773559807826 H 0.0 **** 0.06
21705 H 26.511620201789817 19.48550275032241 16.91503331368949 H 0.0 **** 0.06
21706 C 71.02263249526197 93.83910372078914 107.95315193214859 C 0.0 **** -0.24
21707 H 71.3139224323258 93.93039182097371 106.90651291136523 H 0.0 **** 0.06
21708 H 71.17461256257042 94.79437852255512 108.45715664981475 H 0.0 **** 0.06
21709 H 71.63094573718266 93.07309406481271 108.43485910846765 H 0.0 **** 0.06
21710 H 69.97083505816683 93.55952009791866 108.01396069425623 H 0.0 **** 0.06
21711 C 33.751663684316014 102.30802011577448 52.109201791172445 C 0.0 **** -0.24
21712 H 33.42074328965174 101.57107793446995 52.840606902085376 H 0.0 **** 0.06
21713 H 33.337762767332094 103.2841489368644 52.364121715579515 H 0.0 **** 0.06
21714 H 33.407310126750986 102.01472196442066 51.117910043919004 H 0.0 **** 0.06
21715 H 34.84001071197707 102.36177085613434 52.11459813010884 H 0.0 **** 0.06
21716 C 34.74474813783709 30.346635995016726 84.21530062133519 C 0.0 **** -0.24
21717 H 34.59700197732195 29.37175297029094 84.68147955319313 H 0.0 **** 0.06
21718 H 35.79266257817778 30.459196712085998 83.93428272263259 H 0.0 **** 0.06
21719 H 34.47012055204465 31.13097608209118 84.92093997379436 H 0.0 **** 0.06
21720 H 34.119026841344805 30.42189336095879 83.32574243606717 H 0.0 **** 0.06
21721 C 7.36733819776039 112.42533925163525 1.0607445540085791 C 0.0 **** -0.24
21722 H 7.556752499129516 112.95200892503749 1.9966681057730398 H 0.0 **** 0.06
21723 H 8.136482481408379 112.6878942131593 0.33391681877441215 H 0.0 **** 0.06
21724 H 6.388815856334986 112.71133399456646 0.6751883584287839 H 0.0 **** 0.06
21725 H 7.386893545673587 111.34965386012475 1.2393534949223977 H 0.0 **** 0.06
21726 C 98.1081345033733 72.72858506346938 41.26154535766369 C 0.0 **** -0.24
21727 H 97.10989413351683 73.16623490342408 41.28629138567331 H 0.0 **** 0.06
21728 H 98.84016938325539 73.47614108801827 41.56828061594868 H 0.0 **** 0.06
21729 H 98.33222480726141 72.39399593314027 40.24915652596184 H 0.0 **** 0.06
21730 H 98.14793256731369 71.87875976338938 41.942523033008655 H 0.0 **** 0.06
21731 C 112.67167766239967 67.70999141684047 17.06837237456972 C 0.0 **** -0.24
21732 H 112.95620193579 68.760769065847 17.02198514291854 H 0.0 **** 0.06
21733 H 112.74626387960262 67.35825002630764 18.096976963126735 H 0.0 **** 0.06
21734 H 113.33865757848449 67.12510704599242 16.43416840193126 H 0.0 **** 0.06
21735 H 111.64572693121724 67.59566352013792 16.718134176631395 H 0.0 **** 0.06
21736 C 2.4659204872984883 103.78604891936583 38.791465772734796 C 0.0 **** -0.24
21737 H 3.086203862395772 103.56710589628483 37.922015905647754 H 0.0 **** 0.06
21738 H 1.9432370640394883 104.7303174886462 38.6361579780293 H 0.0 **** 0.06
21739 H 3.0967605613325144 103.86053934870365 39.67712570726536 H 0.0 **** 0.06
21740 H 1.7390269314268227 102.98586749919093 38.92899023426429 H 0.0 **** 0.06
21741 C 52.434773219209774 79.65944975146869 6.232082654669144 C 0.0 **** -0.24
21742 H 53.14469248309945 80.18390178571612 6.870595128172761 H 0.0 **** 0.06
21743 H 52.89706911655361 78.750879857306 5.845673766216791 H 0.0 **** 0.06
21744 H 52.1488689107581 80.30374242009657 5.400831656269736 H 0.0 **** 0.06
21745 H 51.54849534743005 79.39828327250908 6.811354804685292 H 0.0 **** 0.06
21746 C 71.136530409182 97.54982658165841 70.77895607221254 C 0.0 **** -0.24
21747 H 70.53492897034081 97.75484502593477 71.66435580584093 H 0.0 **** 0.06
21748 H 70.48014302081086 97.34267896794148 69.93318773977961 H 0.0 **** 0.06
21749 H 71.77496435705467 96.68594272679866 70.96389209680382 H 0.0 **** 0.06
21750 H 71.7566582522748 98.4176035729086 70.55313947972476 H 0.0 **** 0.06
21751 C 0.901684547399384 2.1173672383946958 36.77866237334683 C 0.0 **** -0.24
21752 H 1.8876264570511694 1.6988120930036263 36.57471449147749 H 0.0 **** 0.06
21753 H 0.263029118625866 1.986598444262082 35.90522530813308 H 0.0 **** 0.06
21754 H 0.9993248305701172 3.179617017795291 37.00268990526149 H 0.0 **** 0.06
21755 H 0.4598171523263659 1.6051969886569495 37.633054182295325 H 0.0 **** 0.06
21756 C 1.7595437030041694 58.138923904411854 72.73967139994016 C 0.0 **** -0.24
21757 H 1.8786036872717773 57.6087439474191 71.79352731935822 H 0.0 **** 0.06
21758 H 1.4876547644727225 59.17599405345128 72.54230250244922 H 0.0 **** 0.06
21759 H 2.69786547916641 58.107895697329155 73.29279706972153 H 0.0 **** 0.06
21760 H 0.9745280090270398 57.6624508159783 73.32639814849801 H 0.0 **** 0.06
21761 C 112.30202863145479 46.87192467929685 65.05624718181578 C 0.0 **** -0.24
21762 H 111.70570255347985 46.78699256403016 64.14814186694906 H 0.0 **** 0.06
21763 H 111.72394068218335 47.387067274838444 65.82309133492055 H 0.0 **** 0.06
21764 H 113.20905062657778 47.43754205641005 64.84283527897632 H 0.0 **** 0.06
21765 H 112.56941945382914 45.87625234313722 65.40919514286345 H 0.0 **** 0.06
21766 C 14.968634520905482 46.23878251066418 55.47479623821252 C 0.0 **** -0.24
21767 H 14.830911139919152 45.98896030452019 54.42282395466941 H 0.0 **** 0.06
21768 H 14.678875251082417 45.38767951294733 56.09114095791014 H 0.0 **** 0.06
21769 H 14.34699899096222 47.09855194695828 55.726884317797044 H 0.0 **** 0.06
21770 H 16.01517429160529 46.47980260161685 55.6568080100603 H 0.0 **** 0.06
21771 C 102.82823187285224 91.2451907442977 30.024714149651174 C 0.0 **** -0.24
21772 H 101.80263502246451 91.59820145498583 29.91877044166614 H 0.0 **** 0.06
21773 H 102.94285685159451 90.74602204444432 30.98665502677548 H 0.0 **** 0.06
21774 H 103.51064852585678 92.09396018839305 29.9711646781019 H 0.0 **** 0.06
21775 H 103.05635845374276 90.54417844107743 29.221757380284288 H 0.0 **** 0.06
21776 C 96.7456534902437 44.079888033302865 59.083698627535625 C 0.0 **** -0.24
21777 H 96.3627418782627 45.053644356535074 58.7780585087022 H 0.0 **** 0.06
21778 H 96.4659812032256 43.33137735781111 58.34169270506334 H 0.0 **** 0.06
21779 H 96.32248401097078 43.811082783828795 60.051271803603555 H 0.0 **** 0.06
21780 H 97.83179396138817 44.126205395595434 59.161481153275474 H 0.0 **** 0.06
21781 C 38.04613357741357 51.478854692911455 46.89602921147784 C 0.0 **** -0.24
21782 H 38.23613160196669 52.23823308633671 47.65560004515643 H 0.0 **** 0.06
21783 H 38.701411094466664 50.62440402672482 47.06534250406463 H 0.0 **** 0.06
21784 H 38.24171817529023 51.89714950732393 45.90871484291057 H 0.0 **** 0.06
21785 H 37.00670932838128 51.158450345464985 46.9554577651148 H 0.0 **** 0.06
21786 C 75.64804591706462 101.03100541449787 72.64122746592489 C 0.0 **** -0.24
21787 H 75.18397773428782 100.99286514524375 73.62663478317319 H 0.0 **** 0.06
21788 H 75.57852290905566 100.0501444511398 72.16913110672056 H 0.0 **** 0.06
21789 H 76.69584328570252 101.31117794515346 72.7446707988801 H 0.0 **** 0.06
21790 H 75.13255838343363 101.76812344033722 72.02566986024914 H 0.0 **** 0.06
21791 C 54.338835974740164 88.70599785297195 71.2138611130755 C 0.0 **** -0.24
21792 H 54.90666730583071 89.16832323344947 70.40697554053617 H 0.0 **** 0.06
21793 H 54.99193031913284 88.04372920854216 71.78287395988411 H 0.0 **** 0.06
21794 H 53.513700067137506 88.13002793870542 70.79335781876875 H 0.0 **** 0.06
21795 H 53.94337778478404 89.47993455541422 71.87082860879389 H 0.0 **** 0.06
21796 C 73.71796186492054 82.0228275511331 86.9204276428028 C 0.0 **** -0.24
21797 H 73.55964556913017 81.41094214319315 87.80887167134853 H 0.0 **** 0.06
21798 H 74.01437783053166 83.02758416394289 87.21945139634462 H 0.0 **** 0.06
21799 H 72.79327904062512 82.07148526632722 86.34490815117232 H 0.0 **** 0.06
21800 H 74.50290359143912 81.57794831771145 86.30876555286757 H 0.0 **** 0.06
21801 C 52.78817019176723 42.300419221116314 79.96539721697263 C 0.0 **** -0.24
21802 H 52.42052066450222 41.51942404701885 80.63111632334176 H 0.0 **** 0.06
21803 H 52.3398146524446 42.177720832089655 78.97911327642294 H 0.0 **** 0.06
21804 H 53.872207887159774 42.22792261411598 79.88328134674151 H 0.0 **** 0.06
21805 H 52.518826096700934 43.27653220066798 80.36860157354442 H 0.0 **** 0.06
21806 C 48.32957226235158 27.1275074585229 64.89495769929704 C 0.0 **** -0.24
21807 H 48.185691714762335 26.103272802383927 65.2377510243889 H 0.0 **** 0.06
21808 H 49.11527322758613 27.600417550014726 65.48347409525991 H 0.0 **** 0.06
21809 H 47.40035488823315 27.684899508683415 65.01537264109993 H 0.0 **** 0.06
21810 H 48.616178148684305 27.122027287283032 63.84340428724795 H 0.0 **** 0.06
21811 C 71.04073204888692 65.94122578759979 38.53933630754282 C 0.0 **** -0.24
21812 H 71.48121832336386 65.13860495584358 39.13250180606294 H 0.0 **** 0.06
21813 H 71.8313349040332 66.59045537771806 38.16203846161628 H 0.0 **** 0.06
21814 H 70.36010501936649 66.52067753062566 39.162923563333564 H 0.0 **** 0.06
21815 H 70.4908072735619 65.5123821444645 37.70128353064922 H 0.0 **** 0.06
21816 C 26.350993612440078 105.49591734366591 33.6797169881151 C 0.0 **** -0.24
21817 H 25.975279802456413 104.48128955144345 33.54450538939966 H 0.0 **** 0.06
21818 H 26.04229844378962 105.87044662970487 34.65542269702755 H 0.0 **** 0.06
21819 H 25.94778280029388 106.13944634784836 32.89766837863533 H 0.0 **** 0.06
21820 H 27.439596344495598 105.48976714619859 33.62047300570677 H 0.0 **** 0.06
21821 C 110.7192560567824 111.06462402501465 97.17550665838871 C 0.0 **** -0.24
21822 H 111.03257705693798 111.8741493510273 96.51715782642071 H 0.0 **** 0.06
21823 H 110.47119361553212 110.18645313334761 96.57815119733431 H 0.0 **** 0.06
21824 H 109.84334685617219 111.37590964239233 97.74436680723011 H 0.0 **** 0.06
21825 H 111.53041053985984 110.81988751649322 97.86175809937549 H 0.0 **** 0.06
21826 C 46.75371282430223 29.194522021868067 0.8033052198701967 C 0.0 **** -0.24
21827 H 45.67614420075671 29.077645608104888 0.9218900570084543 H 0.0 **** 0.06
21828 H 47.199457180352454 28.230133976829052 0.5600394992076758 H 0.0 **** 0.06
21829 H 47.18165336669142 29.570038500339535 1.732487003936967 H 0.0 **** 0.06
21830 H 46.95574734205729 29.901808851635565 -0.0016568918555321943 H 0.0 **** 0.06
21831 C 41.35415493423778 42.27941126557518 99.28116807752266 C 0.0 **** -0.24
21832 H 40.57428480608138 42.14372547905526 98.53221849822957 H 0.0 **** 0.06
21833 H 42.08704755105475 43.000214509999466 98.91683344483764 H 0.0 **** 0.06
21834 H 41.846126054959285 41.32536064271544 99.47167635684758 H 0.0 **** 0.06
21835 H 40.90929308601163 42.649846867175995 100.20559495155406 H 0.0 **** 0.06
21836 C 13.325138467439448 89.58833001825613 87.70659235559157 C 0.0 **** -0.24
21837 H 12.24914602950252 89.42671517953167 87.78370635893596 H 0.0 **** 0.06
21838 H 13.687747046031998 90.06040894308633 88.61945545407592 H 0.0 **** 0.06
21839 H 13.534283380560769 90.23393926443879 86.85451514394845 H 0.0 **** 0.06
21840 H 13.825895828870372 88.62983339371871 87.5686073447194 H 0.0 **** 0.06
21841 C 33.57261693544129 43.004110894250516 89.59804031188474 C 0.0 **** -0.24
21842 H 33.07272375417935 42.128437197165056 89.18332598750861 H 0.0 **** 0.06
21843 H 32.8261203239949 43.744375764584504 89.88927114222997 H 0.0 **** 0.06
21844 H 34.235926807795636 43.43247381306571 88.84698655474983 H 0.0 **** 0.06
21845 H 34.1535178807074 42.709784690392354 90.47140716496186 H 0.0 **** 0.06
21846 C 45.726229356767874 92.84267894106884 60.45649074440617 C 0.0 **** -0.24
21847 H 45.08670302218968 93.4604014607211 59.82709942657493 H 0.0 **** 0.06
21848 H 45.471976850124975 91.79156937001198 60.31353624292561 H 0.0 **** 0.06
21849 H 45.577320526114704 93.11291299817474 61.5022174320119 H 0.0 **** 0.06
21850 H 46.7690317786778 93.00487049220501 60.184140688024584 H 0.0 **** 0.06
21851 C 73.03276201465195 50.16359003737969 50.78273147438017 C 0.0 **** -0.24
21852 H 73.84955480160264 50.81234541994897 50.46638585445572 H 0.0 **** 0.06
21853 H 73.10136200255096 49.21030946046139 50.25787074577687 H 0.0 **** 0.06
21854 H 72.08041979428063 50.63863292260481 50.54992246728142 H 0.0 **** 0.06
21855 H 73.10019801889865 49.991853314367205 51.85727345604255 H 0.0 **** 0.06
21856 C 18.68401943951551 79.78200670259616 63.13052871203482 C 0.0 **** -0.24
21857 H 19.28106397510453 80.69403501445683 63.14005493939993 H 0.0 **** 0.06
21858 H 18.806905294365407 79.25829474915867 64.07941727511326 H 0.0 **** 0.06
21859 H 19.015254392235533 79.13866305323461 62.31478551554545 H 0.0 **** 0.06
21860 H 17.63404416647171 80.03656878575859 62.98846327694662 H 0.0 **** 0.06
21861 C 32.71741724381246 98.78226757347613 68.93631346431404 C 0.0 **** -0.24
21862 H 33.69139231871796 98.4589792483965 68.57098254368556 H 0.0 **** 0.06
21863 H 31.974888043724263 98.657828322299 68.14746501779632 H 0.0 **** 0.06
21864 H 32.768726952067624 99.83239214410622 69.22459679164707 H 0.0 **** 0.06
21865 H 32.43493276665893 98.18136420091696 69.80056759068033 H 0.0 **** 0.06
21866 C 19.90635594733598 90.55333946727964 102.16076662446038 C 0.0 **** -0.24
21867 H 20.438058368875375 89.8487081729943 101.52085423813064 H 0.0 **** 0.06
21868 H 19.18894455144445 91.11561721173598 101.56394996917548 H 0.0 **** 0.06
21869 H 20.620118922911303 91.24131007926002 102.6141058085513 H 0.0 **** 0.06
21870 H 19.38025061712497 90.0081076431274 102.94392302873482 H 0.0 **** 0.06
21871 C 22.16430752319431 106.46083745338879 92.53566554353034 C 0.0 **** -0.24
21872 H 21.496453449176357 105.90092686430515 91.88189528087219 H 0.0 **** 0.06
21873 H 21.579799619806295 107.14510169278645 93.15155723652543 H 0.0 **** 0.06
21874 H 22.870776627930354 107.02965244556316 91.93126463836552 H 0.0 **** 0.06
21875 H 22.709455716642026 105.76886454214358 93.17781934666698 H 0.0 **** 0.06
21876 C 2.7589239418724922 68.63647139916844 20.513191445831954 C 0.0 **** -0.24
21877 H 2.259843123189171 69.45121261191635 21.038838388764137 H 0.0 **** 0.06
21878 H 3.8105613958828393 68.60901038585527 20.80178669718508 H 0.0 **** 0.06
21879 H 2.6813013600529985 68.79701899929182 19.437467128400073 H 0.0 **** 0.06
21880 H 2.285102231323311 67.69055364624043 20.775012241864008 H 0.0 **** 0.06
21881 C 74.50560198086254 84.99743040368605 24.349460890702034 C 0.0 **** -0.24
21882 H 75.3421668831453 84.51608008187651 24.855591865483547 H 0.0 **** 0.06
21883 H 74.71636847100183 85.06326745839311 23.281492917494774 H 0.0 **** 0.06
21884 H 74.36460235140652 86.00050967285637 24.75414933399091 H 0.0 **** 0.06
21885 H 73.60048938567479 84.41173601755088 24.50650471743444 H 0.0 **** 0.06
21886 C 31.98293625926327 52.047519090495115 58.914612576587814 C 0.0 **** -0.24
21887 H 32.650658357172105 51.18867326683687 58.85933585860636 H 0.0 **** 0.06
21888 H 30.99696740719142 51.765507195206936 58.54438520905461 H 0.0 **** 0.06
21889 H 32.38172510389439 52.8582935297552 58.30501450063957 H 0.0 **** 0.06
21890 H 31.90194848887805 52.378410658409166 59.95009957102087 H 0.0 **** 0.06
21891 C 107.92410227446638 62.65393546305353 113.80796623157738 C 0.0 **** -0.24
21892 H 108.82880564109205 62.96732926111869 113.28895507111939 H 0.0 **** 0.06
21893 H 107.24579432201689 62.1765866448105 113.10019506301765 H 0.0 **** 0.06
21894 H 107.43638606284242 63.5243023659647 114.24796959166133 H 0.0 **** 0.06
21895 H 108.1841827845236 61.94682324649797 114.59573079186283 H 0.0 **** 0.06
21896 C 63.76429355393549 39.72398907702387 5.85859924726978 C 0.0 **** -0.24
21897 H 62.762698353684925 39.343373473621796 5.656657638293154 H 0.0 **** 0.06
21898 H 64.50341082025324 39.022801261915475 5.4710029706438945 H 0.0 **** 0.06
21899 H 63.8988636913661 39.83739522535957 6.934145368470212 H 0.0 **** 0.06
21900 H 63.889140068263714 40.69170266059514 5.372993121983399 H 0.0 **** 0.06
21901 C 26.03022922603276 60.65726874383529 39.43741059402228 C 0.0 **** -0.24
21902 H 26.650545469218514 61.22845195929153 38.745807298545316 H 0.0 **** 0.06
21903 H 26.466368787283784 59.66931081716859 39.58288545368541 H 0.0 **** 0.06
21904 H 25.027051946983136 60.555216152116316 39.024136908154816 H 0.0 **** 0.06
21905 H 25.978657571506062 61.17776400151587 40.39316503161726 H 0.0 **** 0.06
21906 C 70.38794784225769 45.006861983690584 8.86225627287223 C 0.0 **** -0.24
21907 H 70.70843577744844 44.395625967854386 9.705954425702942 H 0.0 **** 0.06
21908 H 69.36383683095042 44.74647183892088 8.593996716261472 H 0.0 **** 0.06
21909 H 71.04426186674402 44.824049729416316 8.01104938246317 H 0.0 **** 0.06
21910 H 70.43581440407252 46.06004743144365 9.13767906815184 H 0.0 **** 0.06
21911 C 95.99464214602594 75.23074120972517 95.9048603614998 C 0.0 **** -0.24
21912 H 95.92885709473074 74.25297263719803 96.38137947073602 H 0.0 **** 0.06
21913 H 96.26251625329513 75.1055455396406 94.85517368086289 H 0.0 **** 0.06
21914 H 96.7555833301667 75.82895000361889 96.4060612258894 H 0.0 **** 0.06
21915 H 95.03062395335155 75.73449197412793 95.97694820021991 H 0.0 **** 0.06
21916 C 13.542839340510454 9.45880718528835 85.7086594588354 C 0.0 **** -0.24
21917 H 12.654606729432714 9.998872095008352 85.38130451663234 H 0.0 **** 0.06
21918 H 13.943931284157713 8.881400597067199 84.87531170724122 H 0.0 **** 0.06
21919 H 13.277430974488823 8.785270100866 86.52354273315373 H 0.0 **** 0.06
21920 H 14.293890990989212 10.168443112657457 86.0540168918818 H 0.0 **** 0.06
21921 C 82.1868796752492 29.36927959796394 25.789740449199783 C 0.0 **** -0.24
21922 H 82.45560300212844 28.314125962577087 25.837928839919968 H 0.0 **** 0.06
21923 H 82.17762758392956 29.787052983512936 26.796557891728902 H 0.0 **** 0.06
21924 H 81.19791073679897 29.472655665285565 25.343701932329317 H 0.0 **** 0.06
21925 H 82.91778291067357 29.90251954717536 25.181436907133907 H 0.0 **** 0.06
21926 C 93.86580163505519 55.22119249582869 19.513185521293735 C 0.0 **** -0.24
21927 H 94.22636382560788 56.18661121400845 19.869728954386403 H 0.0 **** 0.06
21928 H 93.53919109363352 54.619494499012546 20.36145354421788 H 0.0 **** 0.06
21929 H 94.67009668431379 54.70553744433573 18.98889374061264 H 0.0 **** 0.06
21930 H 93.02832678888345 55.37600136059831 18.83228927390141 H 0.0 **** 0.06
21931 C 3.0502436119007097 3.341263332165738 67.73645654574756 C 0.0 **** -0.24
21932 H 2.5137648343467163 2.6266191631135314 68.36179634998501 H 0.0 **** 0.06
21933 H 2.841302984940576 4.3539785072427435 68.08230099861646 H 0.0 **** 0.06
21934 H 2.7232498580155333 3.235217445387974 66.7019233526874 H 0.0 **** 0.06
21935 H 4.120800385772213 3.1483442107396087 67.80067432052371 H 0.0 **** 0.06
21936 C 78.60307161714451 39.61221924194626 32.469134949774855 C 0.0 **** -0.24
21937 H 77.6762316161574 39.48089846751935 33.027493273288655 H 0.0 **** 0.06
21938 H 78.44933736596599 40.34806338729996 31.679106600354174 H 0.0 **** 0.06
21939 H 78.89927093147571 38.66155417170552 32.02717638618245 H 0.0 **** 0.06
21940 H 79.38634488066359 39.960277391044315 33.14242616968713 H 0.0 **** 0.06
21941 C 39.198652987193384 23.764468983999127 103.78502214286326 C 0.0 **** -0.24
21942 H 39.904846793811714 24.426962531248826 104.28604728362099 H 0.0 **** 0.06
21943 H 38.5612437542257 23.283782623420404 104.52795397995341 H 0.0 **** 0.06
21944 H 39.74714716309609 23.003782065236013 103.229404369224 H 0.0 **** 0.06
21945 H 38.582222434458515 24.342820177210804 103.0966473623821 H 0.0 **** 0.06
21946 C 69.33564510798318 108.03929064480586 8.081213420081369 C 0.0 **** -0.24
21947 H 68.65829982810502 108.88281575651501 7.952927656420712 H 0.0 **** 0.06
21948 H 68.77043849371188 107.1078032062435 8.033956032836542 H 0.0 **** 0.06
21949 H 69.83113029057009 108.1147715894915 9.048881537518128 H 0.0 **** 0.06
21950 H 70.08370863278839 108.05013712971017 7.287933568876795 H 0.0 **** 0.06
21951 C 112.74653058736244 76.94135942134852 80.64819934928464 C 0.0 **** -0.24
21952 H 112.51359235023753 77.95581515306111 80.32408529703864 H 0.0 **** 0.06
21953 H 112.27147438465266 76.74917230939616 81.60950585297763 H 0.0 **** 0.06
21954 H 113.82648420927335 76.83065054529797 80.74615483000669 H 0.0 **** 0.06
21955 H 112.37526830322078 76.22998945100682 79.9099726368445 H 0.0 **** 0.06
21956 C 39.300935631186746 44.18462343800442 107.86349939924347 C 0.0 **** -0.24
21957 H 39.623577095496955 44.69860337959909 106.95739856220165 H 0.0 **** 0.06
21958 H 38.488036042374944 44.744004552578886 108.32742571769298 H 0.0 **** 0.06
21959 H 40.13770437315566 44.115032068462284 108.5588350674087 H 0.0 **** 0.06
21960 H 38.955272047162794 43.18302122606465 107.608730442865 H 0.0 **** 0.06
21961 C 9.69632349180381 6.739578563713195 0.6277287973186958 C 0.0 **** -0.24
21962 H 10.051946627240625 6.922009828833353 1.642255103002924 H 0.0 **** 0.06
21963 H 10.549895603442337 6.635650221453886 -0.04216381072725994 H 0.0 **** 0.06
21964 H 9.078153475267356 7.576650532820452 0.3038879718562839 H 0.0 **** 0.06
21965 H 9.106610682264431 5.8230676193133775 0.6087802944492182 H 0.0 **** 0.06
21966 C 8.598232442072373 44.090124464995064 29.73501018587966 C 0.0 **** -0.24
21967 H 8.415766378903584 44.358257773862846 30.77557744033033 H 0.0 **** 0.06
21968 H 7.645068175674936 43.98622468272966 29.215629472094896 H 0.0 **** 0.06
21969 H 9.140545136004064 43.145091316245384 29.692679417708952 H 0.0 **** 0.06
21970 H 9.189710827235203 44.87071089407106 29.25740820392793 H 0.0 **** 0.06
21971 C 17.414268865125027 21.376879667091288 13.049260896221483 C 0.0 **** -0.24
21972 H 17.2363917140187 20.49345635463078 12.436369794906625 H 0.0 **** 0.06
21973 H 17.79319458697311 22.184273551310667 12.421879813814314 H 0.0 **** 0.06
21974 H 18.14720962097354 21.140821647381642 13.820944790065141 H 0.0 **** 0.06
21975 H 16.480719164316888 21.687109855878873 13.518447136784175 H 0.0 **** 0.06
21976 C 93.25573714066982 95.62998610754451 12.253618950328985 C 0.0 **** -0.24
21977 H 92.47422538443638 95.36943562056939 11.540625745300531 H 0.0 **** 0.06
21978 H 94.15699415871846 95.92079277924913 11.713262714223447 H 0.0 **** 0.06
21979 H 93.47167715333305 94.76973572795687 12.886200705191328 H 0.0 **** 0.06
21980 H 92.91933260329472 96.46084301178685 12.873527272226283 H 0.0 **** 0.06
21981 C 67.12571678656509 53.77858503156369 101.26908306453089 C 0.0 **** -0.24
21982 H 66.36872202847644 54.32317013417304 100.70403563174708 H 0.0 **** 0.06
21983 H 68.10247151498012 54.230835232159734 101.0972444453171 H 0.0 **** 0.06
21984 H 67.14331200001614 52.738568755485915 100.94165495365104 H 0.0 **** 0.06
21985 H 66.88670301864549 53.820371693474556 102.33088612783456 H 0.0 **** 0.06
21986 C 9.613725740520298 45.35970000454614 9.556621919343456 C 0.0 **** -0.24
21987 H 10.233816100502466 45.34387141912788 10.452844519127979 H 0.0 **** 0.06
21988 H 9.806455042311029 46.27538553503541 8.997968218219 H 0.0 **** 0.06
21989 H 8.562772708441823 45.322021344963616 9.84285885432871 H 0.0 **** 0.06
21990 H 9.852371888653995 44.496780835090135 8.935093911639456 H 0.0 **** 0.06
21991 C 11.628668645097104 95.07969126189802 53.95151400564487 C 0.0 **** -0.24
21992 H 10.879814286977872 95.84224444842246 54.16228938900235 H 0.0 **** 0.06
21993 H 12.010164654119038 95.21649854785956 52.93883725044236 H 0.0 **** 0.06
21994 H 11.176005707302135 94.09213625887261 54.03886340513259 H 0.0 **** 0.06
21995 H 12.448308497129094 95.16819907000627 54.66412778501399 H 0.0 **** 0.06
21996 C 79.91537547321244 20.296449893204993 79.7576251657664 C 0.0 **** -0.24
21997 H 79.10732335774986 20.094550220477004 80.46219096819789 H 0.0 **** 0.06
21998 H 80.75484166496314 20.74600077463316 80.28809389942717 H 0.0 **** 0.06
21999 H 79.56231480490506 20.98114191751654 78.98715940280078 H 0.0 **** 0.06
22000 H 80.23530236263747 19.362513112843203 79.29492822104822 H 0.0 **** 0.06
22001 C 21.032667504429128 90.69903500919455 89.94759201089681 C 0.0 **** -0.24
22002 H 21.16188734341023 89.74671210906962 90.46269193238908 H 0.0 **** 0.06
22003 H 19.987575637625014 91.00175899905946 90.00127303720984 H 0.0 **** 0.06
22004 H 21.32629382310077 90.58859643925626 88.90313256699227 H 0.0 **** 0.06
22005 H 21.656655159964515 91.45617537828358 90.42251350477511 H 0.0 **** 0.06
22006 C 2.5481241136347688 14.275815333546458 107.96652432348417 C 0.0 **** -0.24
22007 H 3.1431790337461933 14.298106178912615 108.87915583685486 H 0.0 **** 0.06
22008 H 2.818430801858277 15.123298188355275 107.33616594124672 H 0.0 **** 0.06
22009 H 1.49028807297994 14.334105580825032 108.2213530299681 H 0.0 **** 0.06
22010 H 2.7416222258213487 13.346834730808038 107.42975705475936 H 0.0 **** 0.06
22011 C 115.8917162265684 60.28574218710463 34.73897002093372 C 0.0 **** -0.24
22012 H 115.3292470865664 59.965185236758145 35.616444418500635 H 0.0 **** 0.06
22013 H 115.22988144601244 60.31101998568255 33.87251033635823 H 0.0 **** 0.06
22014 H 116.70652900771118 59.58485296460981 34.55407530865142 H 0.0 **** 0.06
22015 H 116.30176031796262 61.28065718982748 34.91320132865536 H 0.0 **** 0.06
22016 C 2.0551571814017393 66.32980475430162 112.08623247944723 C 0.0 **** -0.24
22017 H 1.5316100198196239 67.26877022329319 111.90861005246629 H 0.0 **** 0.06
22018 H 1.8090064230245844 65.62120454707019 111.29482856423064 H 0.0 **** 0.06
22019 H 1.7501414233154264 65.9190288154526 113.04862380416552 H 0.0 **** 0.06
22020 H 3.1301380608512943 66.5090270727298 112.09214880309136 H 0.0 **** 0.06
22021 C 4.280297082177327 0.9902423726603615 47.91665516906615 C 0.0 **** -0.24
22022 H 4.162638698358876 2.050819035168672 47.69460068360636 H 0.0 **** 0.06
22023 H 4.16574367594994 0.8283760724841045 48.98868520539363 H 0.0 **** 0.06
22024 H 5.271312709431584 0.6616845090559877 47.60270240057656 H 0.0 **** 0.06
22025 H 3.521561524065575 0.42045281537042456 47.37926720347601 H 0.0 **** 0.06
22026 C 113.37548088483207 57.21853104650103 112.16921454929405 C 0.0 **** -0.24
22027 H 113.32188468308273 58.233698921847065 112.56324401518287 H 0.0 **** 0.06
22028 H 114.35765435383045 56.7974931215042 112.38242303045848 H 0.0 **** 0.06
22029 H 113.21444995915618 57.23895495433055 111.09113825923521 H 0.0 **** 0.06
22030 H 112.60712675185934 56.605499020246725 112.63987492815863 H 0.0 **** 0.06
22031 C 23.205603830403817 115.16076552855213 85.71918332462946 C 0.0 **** -0.24
22032 H 23.20556768817812 115.17382577573997 86.80892777203451 H 0.0 **** 0.06
22033 H 22.646061466386982 116.0187957282757 85.34630252991246 H 0.0 **** 0.06
22034 H 22.7393996125339 114.24054711269756 85.36633168474555 H 0.0 **** 0.06
22035 H 24.23231346946693 115.21026654959454 85.35521275658013 H 0.0 **** 0.06
22036 C 5.588617985044351 83.30559107593535 56.62173071938646 C 0.0 **** -0.24
22037 H 6.595688630476047 83.59050615918562 56.925254408750945 H 0.0 **** 0.06
22038 H 4.885080723860369 83.56091512141057 57.413977203379176 H 0.0 **** 0.06
22039 H 5.555125716959282 82.23185073239631 56.437433428980896 H 0.0 **** 0.06
22040 H 5.319479187325442 83.83995624037237 55.71092080415535 H 0.0 **** 0.06
22041 C 41.583415300258594 66.46936375282134 82.9084293225518 C 0.0 **** -0.24
22042 H 42.63750594377274 66.44698982249719 82.63300085528815 H 0.0 **** 0.06
22043 H 41.101191090257714 67.32182028775719 82.42940713667747 H 0.0 **** 0.06
22044 H 41.49293326267269 66.56147775865925 83.99104171862547 H 0.0 **** 0.06
22045 H 41.10319818611589 65.54789418960449 82.57993747466134 H 0.0 **** 0.06
22046 C 82.5736937907027 58.09347182773695 25.305616081403855 C 0.0 **** -0.24
22047 H 82.249427796677 57.69225427760705 26.265656486596953 H 0.0 **** 0.06
22048 H 83.53666469870609 58.59098402146515 25.427046248075726 H 0.0 **** 0.06
22049 H 81.83665073452077 58.8110127194858 24.94367242158495 H 0.0 **** 0.06
22050 H 82.67330679813838 57.28053180325503 24.586846103646764 H 0.0 **** 0.06
22051 C 69.81704660159012 50.24450980964568 69.20716398659658 C 0.0 **** -0.24
22052 H 69.48537841331886 50.58573215054861 70.18752669984661 H 0.0 **** 0.06
22053 H 70.53970265167268 49.43710711829766 69.32838577723669 H 0.0 **** 0.06
22054 H 70.2828147381909 51.072936837572854 68.67265177554049 H 0.0 **** 0.06
22055 H 68.95931558688338 49.88287060929892 68.63926681287433 H 0.0 **** 0.06
22056 C 55.74438541827618 74.72807471756977 46.1321002023783 C 0.0 **** -0.24
22057 H 56.509518613641816 75.22041587628429 45.53105528999711 H 0.0 **** 0.06
22058 H 54.80798748480894 74.69790115094037 45.57418795817108 H 0.0 **** 0.06
22059 H 55.59811379295493 75.28297121769965 47.058586044667635 H 0.0 **** 0.06
22060 H 56.061981499945375 73.71179272939018 46.363394715617886 H 0.0 **** 0.06
22061 C 7.6246491196740465 65.80390341014885 115.43029506149334 C 0.0 **** -0.24
22062 H 7.322250270970642 66.43778788076173 116.26354528653455 H 0.0 **** 0.06
22063 H 8.026373240860579 64.86608426970025 115.8137289324092 H 0.0 **** 0.06
22064 H 8.390375025175786 66.31467717980439 114.84554587765757 H 0.0 **** 0.06
22065 H 6.761484691334402 65.59826403398807 114.79832663475281 H 0.0 **** 0.06
22066 C 21.434017310232917 110.43180909088582 62.07083263776873 C 0.0 **** -0.24
22067 H 20.69976639713029 109.76293879449045 61.62194326133128 H 0.0 **** 0.06
22068 H 22.321667444661855 109.86309139493572 62.34797877119506 H 0.0 **** 0.06
22069 H 21.007493283776952 110.89636173062902 62.959053090301396 H 0.0 **** 0.06
22070 H 21.70659065518703 111.20558708639003 61.35231958505476 H 0.0 **** 0.06
22071 C 113.05967458111802 101.2878240837793 7.373104509660521 C 0.0 **** -0.24
22072 H 112.5387189602891 100.33453494773491 7.2857741019798254 H 0.0 **** 0.06
22073 H 113.6775693394982 101.2839307366608 8.270527158634934 H 0.0 **** 0.06
22074 H 112.33020171628239 102.09545705985215 7.436664629518532 H 0.0 **** 0.06
22075 H 113.69127957821665 101.4376358035336 6.497434974973885 H 0.0 **** 0.06
22076 C 31.4972485883589 47.86489322009058 111.06124382084076 C 0.0 **** -0.24
22077 H 30.432011180362963 47.81016200148241 110.83441707303986 H 0.0 **** 0.06
22078 H 31.692119976458514 48.74482898694538 111.67462034844692 H 0.0 **** 0.06
22079 H 32.062740268212224 47.9353276494619 110.13194262157604 H 0.0 **** 0.06
22080 H 31.79921158428118 46.96906165734964 111.60329702963014 H 0.0 **** 0.06
22081 C 10.429721157261582 43.90292184407065 112.99149270312509 C 0.0 **** -0.24
22082 H 10.153445950720055 43.58964353374313 113.99810099017868 H 0.0 **** 0.06
22083 H 11.132548036955626 43.1841974356239 112.56813676506411 H 0.0 **** 0.06
22084 H 10.897126961935527 44.88667410931714 113.03310809560978 H 0.0 **** 0.06
22085 H 9.537210861833202 43.950574385529535 112.36786930553626 H 0.0 **** 0.06
22086 C 109.109902515067 15.210499384794446 50.341550287018094 C 0.0 **** -0.24
22087 H 108.05049845522188 15.116402664361203 50.105026833049806 H 0.0 **** 0.06
22088 H 109.69013571117071 14.57671208261462 49.66960181544016 H 0.0 **** 0.06
22089 H 109.28096386020856 14.901197935840202 51.3725629801645 H 0.0 **** 0.06
22090 H 109.41890794570396 16.24881088771272 50.218045379591786 H 0.0 **** 0.06
22091 C 19.56777248127355 63.5164073095622 85.50721005416284 C 0.0 **** -0.24
22092 H 18.709159539508136 63.33434808487574 86.15353412823856 H 0.0 **** 0.06
22093 H 19.41264250711359 64.44067360433752 84.94986446049904 H 0.0 **** 0.06
22094 H 19.681258197467145 62.685634375563325 84.81061197035075 H 0.0 **** 0.06
22095 H 20.467939893786564 63.60528788587074 86.1162055238668 H 0.0 **** 0.06
22096 C 22.2198020751309 38.35117713493749 95.64066968442484 C 0.0 **** -0.24
22097 H 21.170811696380497 38.287991548575135 95.35321315090582 H 0.0 **** 0.06
22098 H 22.346173659791873 37.952982402095834 96.6475285336785 H 0.0 **** 0.06
22099 H 22.53956721085379 39.39320654451497 95.6196567068892 H 0.0 **** 0.06
22100 H 22.823017797811218 37.771777175157645 94.94172474212513 H 0.0 **** 0.06
22101 C 50.844052625680504 96.73698458608915 20.2615726476115 C 0.0 **** -0.24
22102 H 49.78548336558872 96.47804938156479 20.29117429882058 H 0.0 **** 0.06
22103 H 51.277556922303035 96.60604426144467 21.253502716294804 H 0.0 **** 0.06
22104 H 50.95541932700394 97.77542260887839 19.95037422819297 H 0.0 **** 0.06
22105 H 51.356825220396075 96.08765277214982 19.55198191011783 H 0.0 **** 0.06
22106 C 111.25519468822142 24.959088374571763 33.280282045645095 C 0.0 **** -0.24
22107 H 111.87819622158577 24.42061950650057 32.56619947655548 H 0.0 **** 0.06
22108 H 110.24539416891332 25.056565206548925 32.88010982930277 H 0.0 **** 0.06
22109 H 111.67537133519659 25.949763340052073 33.45389441157445 H 0.0 **** 0.06
22110 H 111.22233491405848 24.40813652109091 34.2205755546174 H 0.0 **** 0.06
22111 C 56.242647497155815 65.7316434027867 19.166088449999222 C 0.0 **** -0.24
22112 H 55.98229764904652 66.7900604021504 19.18296974666083 H 0.0 **** 0.06
22113 H 56.2051786768654 65.3661731290574 18.139776542617142 H 0.0 **** 0.06
22114 H 55.5335663235087 65.17345830834577 19.777706683086592 H 0.0 **** 0.06
22115 H 57.24817329500691 65.59870833722633 19.563019918040766 H 0.0 **** 0.06
22116 C 97.00467600506252 81.58077862806854 5.310337914336316 C 0.0 **** -0.24
22117 H 96.19157048095805 81.8227633997023 5.994224082504942 H 0.0 **** 0.06
22118 H 96.61752949042065 80.9843301971544 4.483124216019121 H 0.0 **** 0.06
22119 H 97.7696653032411 81.014956113669 5.841259529119938 H 0.0 **** 0.06
22120 H 97.43904821999607 82.50249929831932 4.921671723768441 H 0.0 **** 0.06
22121 C 103.06748410077631 38.55112021108147 18.241175227333866 C 0.0 **** -0.24
22122 H 102.37383427664352 38.522086643684446 17.400208764876965 H 0.0 **** 0.06
22123 H 102.8956298691756 39.457706441694086 18.821403702498266 H 0.0 **** 0.06
22124 H 104.09105520629686 38.54782937786075 17.86744822076739 H 0.0 **** 0.06
22125 H 102.90795781959827 37.67834773315769 18.874354602536698 H 0.0 **** 0.06
22126 C 47.81312579733739 16.373238011727267 61.19739141858145 C 0.0 **** -0.24
22127 H 48.78543523227252 15.89375516530788 61.30969504909831 H 0.0 **** 0.06
22128 H 47.12833471562191 15.985359447824408 61.95248944609841 H 0.0 **** 0.06
22129 H 47.416747837528966 16.162435713306422 60.20476490902843 H 0.0 **** 0.06
22130 H 47.92194529773209 17.449728755280375 61.32440510215963 H 0.0 **** 0.06
22131 C 107.28540814366534 1.1237751319151386 73.15209662363418 C 0.0 **** -0.24
22132 H 107.06320253772856 0.05941857574941878 73.078643801726 H 0.0 **** 0.06
22133 H 108.35906152835037 1.2621926747375767 73.28264391306595 H 0.0 **** 0.06
22134 H 106.75841393239011 1.5456125166098644 74.00862096338165 H 0.0 **** 0.06
22135 H 106.96100272987235 1.6265888576071745 72.24199061912802 H 0.0 **** 0.06
22136 C 36.24528521980901 1.3473667791585342 61.98984059052225 C 0.0 **** -0.24
22137 H 36.86411403637995 2.2168144620291343 61.7670442692459 H 0.0 **** 0.06
22138 H 35.23094693313698 1.674173085608743 62.22117605002262 H 0.0 **** 0.06
22139 H 36.66031748776963 0.8150832697831447 62.84500195934777 H 0.0 **** 0.06
22140 H 36.225023721561215 0.6855411308492592 61.12417678758379 H 0.0 **** 0.06
22141 C 68.40696476395914 86.40845160607658 43.55638476805976 C 0.0 **** -0.24
22142 H 68.96414246784721 87.34534171407016 43.54509320801691 H 0.0 **** 0.06
22143 H 69.0808260503197 85.58832269410823 43.803943007625804 H 0.0 **** 0.06
22144 H 67.96725846391058 86.23441187604811 42.573785584888356 H 0.0 **** 0.06
22145 H 67.61468262670653 86.4659114687046 44.302973644652525 H 0.0 **** 0.06
22146 C 105.14295596721763 72.16920009793569 32.73085174125066 C 0.0 **** -0.24
22147 H 105.68584982931928 72.76085626794728 33.468433483004844 H 0.0 **** 0.06
22148 H 104.95422851800592 71.17351174500664 33.132081353785 H 0.0 **** 0.06
22149 H 105.73685203358914 72.08904859132883 31.821073372464085 H 0.0 **** 0.06
22150 H 104.19436378995358 72.65622540929763 32.502621947579655 H 0.0 **** 0.06
22151 C 71.87154931931201 33.11961522053437 37.19026023748572 C 0.0 **** -0.24
22152 H 72.27399133254272 32.23641289940912 36.69458431793882 H 0.0 **** 0.06
22153 H 71.70910916458362 33.90637011592972 36.45317169661982 H 0.0 **** 0.06
22154 H 72.5799175228131 33.46703358446206 37.94276575879148 H 0.0 **** 0.06
22155 H 70.92606172847911 32.869052099416166 37.6692840191937 H 0.0 **** 0.06
22156 C 66.13783683278473 76.97863902066831 18.438411256545066 C 0.0 **** -0.24
22157 H 65.62834536725565 77.91194200703205 18.682482262539054 H 0.0 **** 0.06
22158 H 67.21274372505357 77.15424747150598 18.39040682425224 H 0.0 **** 0.06
22159 H 65.78555767806056 76.61551114797163 17.47297762603796 H 0.0 **** 0.06
22160 H 65.92318716489947 76.23697344629943 19.206454310220977 H 0.0 **** 0.06
22161 C 88.90616884145454 110.56983130496974 75.47726503712695 C 0.0 **** -0.24
22162 H 89.33684317877992 111.22607170818594 76.23423053226446 H 0.0 **** 0.06
22163 H 87.99005114286257 110.12313111580829 75.86291880096468 H 0.0 **** 0.06
22164 H 89.61945428054133 109.78274049492518 75.23161788512772 H 0.0 **** 0.06
22165 H 88.68041061142137 111.14805015373042 74.58139354716286 H 0.0 **** 0.06
22166 C 95.12943686522178 40.56587582925992 34.22490211328551 C 0.0 **** -0.24
22167 H 94.45534781888942 40.07243558910362 34.92497799094991 H 0.0 **** 0.06
22168 H 96.16119353466483 40.372548698128455 34.517434699054206 H 0.0 **** 0.06
22169 H 94.94250201318701 41.64021263977932 34.23728761849111 H 0.0 **** 0.06
22170 H 94.95658507060446 40.17815675876409 33.22060645261996 H 0.0 **** 0.06
22171 C 46.599369320284154 6.1716202529897455 23.292004650729467 C 0.0 **** -0.24
22172 H 47.28160143525474 5.395618793714352 22.945423332879386 H 0.0 **** 0.06
22173 H 45.631375671231865 5.726382684554267 23.52457383903247 H 0.0 **** 0.06
22174 H 46.4771634403582 6.922379375462718 22.51159194613726 H 0.0 **** 0.06
22175 H 47.007649835629536 6.6404495241428485 24.187905174193062 H 0.0 **** 0.06
22176 C 114.55800812885627 19.529755516961135 56.687318371300435 C 0.0 **** -0.24
22177 H 114.2024116996636 19.217670991988314 55.70569168814679 H 0.0 **** 0.06
22178 H 114.36627063177048 18.737184767011648 57.410996423555616 H 0.0 **** 0.06
22179 H 114.03552311759594 20.435578788920655 56.99177207689607 H 0.0 **** 0.06
22180 H 115.62909430712455 19.72686805555085 56.63895911265868 H 0.0 **** 0.06
22181 C 4.4187802548253785 29.001064118655933 115.718589234895 C 0.0 **** -0.24
22182 H 3.8670713723022914 29.84154555325327 115.29626604034829 H 0.0 **** 0.06
22183 H 4.43019214929879 29.084297510584946 116.80594501800908 H 0.0 **** 0.06
22184 H 5.4414615288702635 29.01259476356691 115.34237841853155 H 0.0 **** 0.06
22185 H 3.9356142701037413 28.06785317031955 115.4302674098511 H 0.0 **** 0.06
22186 C 54.21119904318857 82.46611492255956 2.0535169027260167 C 0.0 **** -0.24
22187 H 54.532332364314755 83.07812693881138 2.896683710260959 H 0.0 **** 0.06
22188 H 53.167341363964226 82.18203871032043 2.187451271694357 H 0.0 **** 0.06
22189 H 54.82816627797445 81.56906366544376 1.999972211835228 H 0.0 **** 0.06
22190 H 54.31808296535144 83.03608499386841 1.129952305618147 H 0.0 **** 0.06
22191 C 67.83101577964155 98.11132387324196 7.7126113113547206 C 0.0 **** -0.24
22192 H 67.3176783143861 97.32247789373798 8.262932356245557 H 0.0 **** 0.06
22193 H 67.79927973080825 99.03584997907845 8.29074102366971 H 0.0 **** 0.06
22194 H 67.33933075547266 98.26452092774127 6.752787910082759 H 0.0 **** 0.06
22195 H 68.86924135068817 97.82187367315481 7.546726223159283 H 0.0 **** 0.06
22196 C 49.54216080995955 0.4801375186041241 111.06593188068956 C 0.0 **** -0.24
22197 H 50.338355399457846 0.26346905878409643 110.35390906237149 H 0.0 **** 0.06
22198 H 49.963087373593964 0.9751666112642425 111.94087677049077 H 0.0 **** 0.06
22199 H 49.063878825584936 -0.45052648006499396 111.3689621437419 H 0.0 **** 0.06
22200 H 48.80485730247164 1.132900012155659 110.59812717271149 H 0.0 **** 0.06
22201 C 23.688612074267922 92.41122394726426 67.61019348635551 C 0.0 **** -0.24
22202 H 23.088222957486817 91.9377122099855 66.83398729945202 H 0.0 **** 0.06
22203 H 23.25387540477014 93.37692339513427 67.86683744380542 H 0.0 **** 0.06
22204 H 24.705804839871625 92.55642478573566 67.24383811921973 H 0.0 **** 0.06
22205 H 23.708201028819904 91.77348692421144 68.49384460908158 H 0.0 **** 0.06
22206 C 113.33909828086911 68.59826027710636 56.5312762365824 C 0.0 **** -0.24
22207 H 113.96646226480175 67.79928417842245 56.13398003017723 H 0.0 **** 0.06
22208 H 112.41417166508324 68.65344531846955 55.95605889064229 H 0.0 **** 0.06
22209 H 113.87004760307019 69.54683030204288 56.45765407358962 H 0.0 **** 0.06
22210 H 113.10638035127619 68.39130051685609 57.57546325638327 H 0.0 **** 0.06
22211 C 70.81116533891807 64.64398298065304 78.77715854639354 C 0.0 **** -0.24
22212 H 71.75384292184188 64.19312109729724 78.46650744135746 H 0.0 **** 0.06
22213 H 70.92961497209289 65.72624976920179 78.83981557003602 H 0.0 **** 0.06
22214 H 70.52488839683288 64.25154071034316 79.75294752592288 H 0.0 **** 0.06
22215 H 70.03668307963666 64.40480214994395 78.04801566106846 H 0.0 **** 0.06
22216 C 85.97861778737094 86.21565988178543 52.68289904979389 C 0.0 **** -0.24
22217 H 86.75809004240374 86.26264800538019 53.44228668486454 H 0.0 **** 0.06
22218 H 86.3964209845396 86.49646396416512 51.71593052445701 H 0.0 **** 0.06
22219 H 85.17388830405994 86.9028154816877 52.94408133836441 H 0.0 **** 0.06
22220 H 85.58577368454115 85.20000586717458 52.627744411017204 H 0.0 **** 0.06
22221 C 91.74249811413785 4.7730002472739645 19.61011279593913 C 0.0 **** -0.24
22222 H 91.57170164283227 4.023690918352791 18.83784562178917 H 0.0 **** 0.06
22223 H 92.34046783556754 5.588054147498912 19.200292097901155 H 0.0 **** 0.06
22224 H 92.27225064382223 4.319002834896738 20.44757453265737 H 0.0 **** 0.06
22225 H 90.78466514961407 5.163772730841464 19.95564935575669 H 0.0 **** 0.06
22226 C 113.77593682649457 99.62815091442984 51.92151773241848 C 0.0 **** -0.24
22227 H 113.00603366455599 99.00791431324149 52.37963255323364 H 0.0 **** 0.06
22228 H 114.63722914139944 99.68831541136858 52.587982601698926 H 0.0 **** 0.06
22229 H 113.38134349541988 100.62900620761752 51.74701751515617 H 0.0 **** 0.06
22230 H 114.08116665443178 99.18731907099422 50.972384124175086 H 0.0 **** 0.06
22231 C 13.364982078234107 80.78685444107631 60.554476554102024 C 0.0 **** -0.24
22232 H 12.72687845931901 80.00986612771803 60.97653642997274 H 0.0 **** 0.06
22233 H 13.377333491043942 80.69652100369245 59.46798361564399 H 0.0 **** 0.06
22234 H 14.378089740261657 80.67353708687848 60.94060167489374 H 0.0 **** 0.06
22235 H 12.977433750837832 81.7667103074124 60.83461467767333 H 0.0 **** 0.06
22236 C 4.9002425488784525 22.46696993978388 64.69967405779056 C 0.0 **** -0.24
22237 H 3.855134345653994 22.19946578793474 64.85582760915241 H 0.0 **** 0.06
22238 H 5.319006434857272 21.84496952222905 63.90709789455626 H 0.0 **** 0.06
22239 H 5.458244014590889 22.306186745790583 65.62144117204818 H 0.0 **** 0.06
22240 H 4.9665171144940246 23.51580563675384 64.41157011841163 H 0.0 **** 0.06
22241 C 51.18400079340506 28.624315900348762 20.003634721554874 C 0.0 **** -0.24
22242 H 52.16971991733229 28.216569514090196 19.77760530371569 H 0.0 **** 0.06
22243 H 51.24511357165767 29.244342128146457 20.89843430854347 H 0.0 **** 0.06
22244 H 50.48334549424101 27.80671046218407 20.174178190851137 H 0.0 **** 0.06
22245 H 50.840606326637726 29.228519420666828 19.1643553528138 H 0.0 **** 0.06
22246 C 104.56459657950262 34.71294151329286 16.934708599596718 C 0.0 **** -0.24
22247 H 104.92020718969627 35.19795309477334 16.02519584008712 H 0.0 **** 0.06
22248 H 103.49990972251493 34.49456353332664 16.83586187831169 H 0.0 **** 0.06
22249 H 104.72198887740359 35.375983957045634 17.784622042012174 H 0.0 **** 0.06
22250 H 105.11346709921656 33.784629452620095 17.089658152133183 H 0.0 **** 0.06
22251 C 87.50251134714833 8.222735713956638 25.41762478557567 C 0.0 **** -0.24
22252 H 86.88971093259883 8.139434372842913 26.315234442535314 H 0.0 **** 0.06
22253 H 88.42385192251365 7.655853036954852 25.55197186799893 H 0.0 **** 0.06
22254 H 87.74258839693614 9.270392654069951 25.23801001744296 H 0.0 **** 0.06
22255 H 86.95176827433427 7.82477892636706 24.564785955932905 H 0.0 **** 0.06
22256 C 62.87548636631425 0.1305594062034512 87.45187401736702 C 0.0 **** -0.24
22257 H 63.03216709859544 -0.8861926102933309 87.09183925373266 H 0.0 **** 0.06
22258 H 63.83341861901391 0.5660409227904886 87.73928888035371 H 0.0 **** 0.06
22259 H 62.210511548576164 0.11169816415415035 88.31590720897636 H 0.0 **** 0.06
22260 H 62.425848199071766 0.7306911481626557 86.66046072640535 H 0.0 **** 0.06
22261 C 84.34536673558087 52.93104270354428 17.168954044778047 C 0.0 **** -0.24
22262 H 84.87024364492845 52.052356357342376 16.792491353671323 H 0.0 **** 0.06
22263 H 85.06543438903246 53.62234276299296 17.609368037078042 H 0.0 **** 0.06
22264 H 83.62357581036257 52.62666318142715 17.925874405890823 H 0.0 **** 0.06
22265 H 83.8253856413841 53.42238512182422 16.34675709336102 H 0.0 **** 0.06
22266 C 33.22976121672713 39.60812331501262 38.01528126520457 C 0.0 **** -0.24
22267 H 33.63273948389656 38.64330838061983 38.322061595799454 H 0.0 **** 0.06
22268 H 33.425191588798384 40.34726523895836 38.7931423226795 H 0.0 **** 0.06
22269 H 32.153924985864364 39.519473361243 37.86084939446083 H 0.0 **** 0.06
22270 H 33.70552081591592 39.92275709060647 37.08683853555708 H 0.0 **** 0.06
22271 C 28.162183327894468 105.33561653354059 51.17520755278769 C 0.0 **** -0.24
22272 H 28.414150710295644 104.29554126597012 51.381843515361474 H 0.0 **** 0.06
22273 H 27.961816569903363 105.85374619744687 52.11344814729475 H 0.0 **** 0.06
22274 H 27.27741261274963 105.37628264336925 50.54147299560069 H 0.0 **** 0.06
22275 H 28.99707751261485 105.81698928798443 50.665486498599975 H 0.0 **** 0.06
22276 C 82.80845305351936 68.47403336305544 72.79203621237484 C 0.0 **** -0.24
22277 H 83.53997288353118 67.66705850965175 72.7852701053922 H 0.0 **** 0.06
22278 H 83.32700887296126 69.43376750720562 72.79484629415403 H 0.0 **** 0.06
22279 H 82.18774638848541 68.39454190398212 73.68426088862772 H 0.0 **** 0.06
22280 H 82.1802553447534 68.40271944683839 71.9046679328625 H 0.0 **** 0.06
22281 C 87.19061187434141 49.762971298359446 115.42585946759766 C 0.0 **** -0.24
22282 H 87.11464498668852 49.32795890301884 116.42259555303735 H 0.0 **** 0.06
22283 H 87.25273176375168 50.84906492821874 115.50811772743674 H 0.0 **** 0.06
22284 H 86.30965933938532 49.4928142499605 114.84430095180483 H 0.0 **** 0.06
22285 H 88.08409706691356 49.38379352362047 114.93070905374702 H 0.0 **** 0.06
22286 C 109.59700443434043 89.72970464280793 42.26472113298519 C 0.0 **** -0.24
22287 H 108.85832666113906 90.05283572117143 41.53211623820823 H 0.0 **** 0.06
22288 H 109.23771570621281 89.95883924044723 43.2685072462898 H 0.0 **** 0.06
22289 H 110.5372269677336 90.2530744455289 42.08724080417551 H 0.0 **** 0.06
22290 H 109.75563627269887 88.6553117344783 42.1718374797785 H 0.0 **** 0.06
22291 C 23.73558670789535 10.876157428609115 44.780863789259485 C 0.0 **** -0.24
22292 H 23.270753520040813 10.258263998884512 45.54880867179671 H 0.0 **** 0.06
22293 H 23.582367110135692 10.417917480779849 43.804173245443415 H 0.0 **** 0.06
22294 H 24.804388206461226 10.958765469141898 44.98003422826183 H 0.0 **** 0.06
22295 H 23.28584889122476 11.868955122924163 44.79164267070216 H 0.0 **** 0.06
22296 C 53.973801631962004 12.595358867159511 50.43567663104193 C 0.0 **** -0.24
22297 H 54.88091712689061 12.169130208712602 50.008000204476104 H 0.0 **** 0.06
22298 H 54.20067164812886 13.569668155181258 50.86965245635008 H 0.0 **** 0.06
22299 H 53.59001087480567 11.932007179502254 51.21054870288202 H 0.0 **** 0.06
22300 H 53.22341038406057 12.712193293609168 49.652918480346784 H 0.0 **** 0.06
22301 C 11.974837453889393 15.461986779241023 7.6177360349734755 C 0.0 **** -0.24
22302 H 11.217126216362942 16.15457312969262 7.984845566986024 H 0.0 **** 0.06
22303 H 12.557455550981928 15.08284325414363 8.45821386299798 H 0.0 **** 0.06
22304 H 12.634511937124927 15.980519970575632 6.921936161125686 H 0.0 **** 0.06
22305 H 11.489653959847658 14.62959431688019 7.1071585490366544 H 0.0 **** 0.06
22306 C 43.086350237019104 28.049875588062832 6.903739095438937 C 0.0 **** -0.24
22307 H 42.001385785947605 27.964684938638243 6.960933702453644 H 0.0 **** 0.06
22308 H 43.44606611911931 27.518934366318774 6.021911729416388 H 0.0 **** 0.06
22309 H 43.53370893679141 27.6159253075204 7.7976903652695455 H 0.0 **** 0.06
22310 H 43.36450642084782 29.101939195396994 6.833418988668313 H 0.0 **** 0.06
22311 C 8.990214046103333 35.77195681984966 43.642461212801976 C 0.0 **** -0.24
22312 H 9.940528751616412 35.80393873139798 43.10911732851807 H 0.0 **** 0.06
22313 H 8.84624480989467 34.7784725936022 44.067530058394304 H 0.0 **** 0.06
22314 H 8.177594319111705 35.993096134004276 42.95028771455874 H 0.0 **** 0.06
22315 H 8.997855982463847 36.51225968524017 44.442554851816276 H 0.0 **** 0.06
22316 C 62.258993694597905 71.45605657383447 5.94985646886218 C 0.0 **** -0.24
22317 H 61.96431419187499 71.8138736354584 6.936646986094473 H 0.0 **** 0.06
22318 H 63.346768164457785 71.46618411870782 5.869720428709826 H 0.0 **** 0.06
22319 H 61.83271930311784 72.10560240578141 5.18527428534172 H 0.0 **** 0.06
22320 H 61.89356242974566 70.43955176230389 5.808098063277782 H 0.0 **** 0.06
22321 C 108.53833541807268 26.214178002242505 36.281941505920884 C 0.0 **** -0.24
22322 H 108.68050371275955 27.15485396595608 35.75022593866373 H 0.0 **** 0.06
22323 H 108.9212234103968 25.393502747808043 35.67441082448488 H 0.0 **** 0.06
22324 H 107.47638242056519 26.061920935810775 36.47205229504726 H 0.0 **** 0.06
22325 H 109.07637919407503 26.24712918199876 37.22928762298699 H 0.0 **** 0.06
22326 C 70.04530899935105 110.82967783656889 71.62668379393978 C 0.0 **** -0.24
22327 H 70.46211433862015 111.14878981909087 70.67137315851062 H 0.0 **** 0.06
22328 H 70.20479034292293 111.61069967032599 72.3710004108662 H 0.0 **** 0.06
22329 H 70.53852896260105 109.9133777287517 71.95003607253483 H 0.0 **** 0.06
22330 H 68.97633663397312 110.64771617817247 71.51386705798132 H 0.0 **** 0.06
22331 C 26.760659066804465 16.098673589364665 30.601393881202 C 0.0 **** -0.24
22332 H 26.46775043840114 15.085264713797102 30.32516825456571 H 0.0 **** 0.06
22333 H 25.88205863311049 16.74358806983423 30.60103226361764 H 0.0 **** 0.06
22334 H 27.488613408970423 16.474478817797092 29.881858959043768 H 0.0 **** 0.06
22335 H 27.204957195091595 16.089318855408493 31.59699633749227 H 0.0 **** 0.06
22336 C 82.47684750035462 20.645193832919755 59.54614668648287 C 0.0 **** -0.24
22337 H 82.72814301646797 20.937351590989 60.56548123932157 H 0.0 **** 0.06
22338 H 81.72550225428947 21.327337415501802 59.147458779383896 H 0.0 **** 0.06
22339 H 82.0810067730383 19.62930230842271 59.54720435665564 H 0.0 **** 0.06
22340 H 83.37196703445704 20.686174014782537 58.92462576063218 H 0.0 **** 0.06
22341 C 15.649810104364434 74.38297201506981 85.6036773425257 C 0.0 **** -0.24
22342 H 15.739826199471764 75.42064187358227 85.28093754981118 H 0.0 **** 0.06
22343 H 15.407517700867203 74.3545252512846 86.66620157660644 H 0.0 **** 0.06
22344 H 16.593724595142163 73.86617584717203 85.43195757918564 H 0.0 **** 0.06
22345 H 14.85882738329883 73.89414105601378 85.03641277842601 H 0.0 **** 0.06
22346 C 38.99575650648063 80.96284645640885 12.81248734945897 C 0.0 **** -0.24
22347 H 38.75672250327935 80.82843550638353 13.86783991871214 H 0.0 **** 0.06
22348 H 38.80230255169363 81.99593011068434 12.524997799697491 H 0.0 **** 0.06
22349 H 38.37651156807672 80.29523581609182 12.213872064361144 H 0.0 **** 0.06
22350 H 40.04734454637904 80.72924270858452 12.646483043228141 H 0.0 **** 0.06
22351 C 92.52651493006948 97.28241356820439 81.19810983956114 C 0.0 **** -0.24
22352 H 93.07612231603207 96.72976897319921 80.4370755795741 H 0.0 **** 0.06
22353 H 93.03760156983356 98.22413688131599 81.40244118579005 H 0.0 **** 0.06
22354 H 92.47627194473878 96.690490610744 82.111555712204 H 0.0 **** 0.06
22355 H 91.51696710603518 97.48673164919796 80.8414771603712 H 0.0 **** 0.06
22356 C 87.06456267298148 83.1625986638098 57.25258529266233 C 0.0 **** -0.24
22357 H 88.0446690633708 83.29725942066386 56.79418094907044 H 0.0 **** 0.06
22358 H 86.58968097594413 84.1348076671635 57.38689321529975 H 0.0 **** 0.06
22359 H 87.18053007762376 82.67609647752283 58.22027927862899 H 0.0 **** 0.06
22360 H 86.44445847885885 82.54155448733175 56.605617354769976 H 0.0 **** 0.06
22361 C 47.28349657159671 50.102206887484044 106.55146574222198 C 0.0 **** -0.24
22362 H 46.856723474142505 50.96293526630157 106.03743375392226 H 0.0 **** 0.06
22363 H 47.795952494753934 49.464386703051105 105.8296180927754 H 0.0 **** 0.06
22364 H 46.486722992724665 49.53636027945066 107.03460449483656 H 0.0 **** 0.06
22365 H 47.99446127959518 50.44388211292278 107.30358326398893 H 0.0 **** 0.06
22366 C 64.65207248353282 45.426367262658516 95.4054400914361 C 0.0 **** -0.24
22367 H 64.82847603132828 46.32385062158045 94.81261721823421 H 0.0 **** 0.06
22368 H 64.66307985531385 45.682589566586216 96.46492606729711 H 0.0 **** 0.06
22369 H 65.43266803575877 44.69495290248801 95.19942772749567 H 0.0 **** 0.06
22370 H 63.68159463588549 45.004990305932125 95.14376138004857 H 0.0 **** 0.06
22371 C 65.68867347893489 51.03350034722382 52.282238169164145 C 0.0 **** -0.24
22372 H 64.92572022735524 50.71013410610391 51.574404049595096 H 0.0 **** 0.06
22373 H 65.46242054212324 52.044637497487656 52.62289182484319 H 0.0 **** 0.06
22374 H 66.6637729811924 51.02378853415905 51.795995274644554 H 0.0 **** 0.06
22375 H 65.70194817615906 50.3564901595592 53.13611726797775 H 0.0 **** 0.06
22376 C 87.63423744637349 115.5582383680833 6.124944384314027 C 0.0 **** -0.24
22377 H 88.21297348273589 114.64560455823857 5.984963509674214 H 0.0 **** 0.06
22378 H 86.86510771152565 115.62303272004188 5.355117317012745 H 0.0 **** 0.06
22379 H 88.29614857260191 116.42180442755648 6.051746432335349 H 0.0 **** 0.06
22380 H 87.16450134415588 115.54330841247669 7.10904230335457 H 0.0 **** 0.06
22381 C 87.25533121434194 6.528180144167507 29.027945724153767 C 0.0 **** -0.24
22382 H 86.59345355251935 7.379048416990258 28.86463395829496 H 0.0 **** 0.06
22383 H 87.27853310115879 5.909924931131343 28.130214276514806 H 0.0 **** 0.06
22384 H 86.88516114197971 5.937618066812149 29.866196357560767 H 0.0 **** 0.06
22385 H 88.26009566101749 6.885579005871179 29.250537148666112 H 0.0 **** 0.06
22386 C 85.56250153435377 37.135438834925985 26.26036619010185 C 0.0 **** -0.24
22387 H 85.54314282593319 37.93943905599767 26.997160956287374 H 0.0 **** 0.06
22388 H 84.97597687336503 36.29274390930838 26.626697532309095 H 0.0 **** 0.06
22389 H 86.5923339933691 36.81776796563184 26.097063154969817 H 0.0 **** 0.06
22390 H 85.13901272689998 37.49263505176203 25.321591108386144 H 0.0 **** 0.06
22391 C 34.58739816230576 16.359345883494598 6.687544835877006 C 0.0 **** -0.24
22392 H 34.77209521487867 15.997950186935398 5.676684996156396 H 0.0 **** 0.06
22393 H 33.68348238399192 15.893607723939553 7.079919372477448 H 0.0 **** 0.06
22394 H 34.45876886037303 17.441821466491646 6.668526403739321 H 0.0 **** 0.06
22395 H 35.433956028261804 16.105091101785973 7.325441258690191 H 0.0 **** 0.06
22396 C 39.9446603663511 5.148122815433084 45.67550511034591 C 0.0 **** -0.24
22397 H 40.21368654502353 5.557346450417469 44.701949534052204 H 0.0 **** 0.06
22398 H 40.41974972673868 5.736096800460359 46.46031477127818 H 0.0 **** 0.06
22399 H 40.28174951192523 4.11394795468064 45.740426426729556 H 0.0 **** 0.06
22400 H 38.861466316305865 5.185900452732625 45.79748519163438 H 0.0 **** 0.06
22401 C 113.95197968314305 20.27950116472917 14.904988461010618 C 0.0 **** -0.24
22402 H 112.94285516423781 20.175382272115456 15.301714346507794 H 0.0 **** 0.06
22403 H 114.52958043372597 19.385278163476528 15.140256775624351 H 0.0 **** 0.06
22404 H 114.43072704311024 21.149718318208386 15.354359847301751 H 0.0 **** 0.06
22405 H 113.90568171512001 20.40865367906929 13.823917858227674 H 0.0 **** 0.06
22406 C 64.70945823738624 89.49345376592798 7.657914973071067 C 0.0 **** -0.24
22407 H 65.16133340651108 88.75550745576386 6.994468912519608 H 0.0 **** 0.06
22408 H 64.26645022159987 90.29239393699248 7.063564034008662 H 0.0 **** 0.06
22409 H 65.47412730808433 89.90900195863685 8.313447131095877 H 0.0 **** 0.06
22410 H 63.93599323181766 89.01523350854158 8.259757049242975 H 0.0 **** 0.06
22411 C 56.75764306252783 54.06074582432956 72.47584028530272 C 0.0 **** -0.24
22412 H 56.19271656313164 54.55830705415394 73.26376629376045 H 0.0 **** 0.06
22413 H 56.67863968081609 52.98135212978184 72.59838077756996 H 0.0 **** 0.06
22414 H 57.804634044746706 54.35829472723901 72.53643817665784 H 0.0 **** 0.06
22415 H 56.35533052192221 54.347052616852636 71.50418726857293 H 0.0 **** 0.06
22416 C 3.3932571248144967 92.1413740172028 50.06127639250854 C 0.0 **** -0.24
22417 H 3.3639461415574488 93.21367996084975 50.25147185441177 H 0.0 **** 0.06
22418 H 4.401544656539869 91.85094068637686 49.76740355363798 H 0.0 **** 0.06
22419 H 2.6953600606202173 91.89525941828283 49.26056115941912 H 0.0 **** 0.06
22420 H 3.109748245925772 91.6046681746591 50.96715230106134 H 0.0 **** 0.06
22421 C 94.93426572089686 64.48673733736624 30.26193137464014 C 0.0 **** -0.24
22422 H 95.87807785826698 64.8127863664635 30.700489591034852 H 0.0 **** 0.06
22423 H 94.23524602003701 64.22475095968542 31.056555929670196 H 0.0 **** 0.06
22424 H 95.11055675644502 63.61487407720165 29.630998296879 H 0.0 **** 0.06
22425 H 94.51642915739933 65.29297020217854 29.659704107684604 H 0.0 **** 0.06
22426 C 29.125952870399146 4.284507006767736 74.8646644059242 C 0.0 **** -0.24
22427 H 29.50948924711838 5.05257965563462 74.19240042688705 H 0.0 **** 0.06
22428 H 29.87790585511027 4.053633369816762 75.61910036457289 H 0.0 **** 0.06
22429 H 28.895713793459038 3.384018553037878 74.29420832968941 H 0.0 **** 0.06
22430 H 28.221280424347924 4.646985591156152 75.35194414867652 H 0.0 **** 0.06
22431 C 15.23245451373208 91.28063027268682 92.78372233938403 C 0.0 **** -0.24
22432 H 16.19003862523283 91.26971304245004 92.26292290591728 H 0.0 **** 0.06
22433 H 14.88695611511838 90.2564714099837 92.92999305931608 H 0.0 **** 0.06
22434 H 14.501319283471673 91.82906820534025 92.18906469668664 H 0.0 **** 0.06
22435 H 15.35129456511612 91.76555506560972 93.75276493587278 H 0.0 **** 0.06
22436 C 83.36732382912828 27.065654329119866 64.98182922380153 C 0.0 **** -0.24
22437 H 82.43093894672069 26.551139301737578 65.19437360498694 H 0.0 **** 0.06
22438 H 83.20120680059034 27.819921507239997 64.21269483386845 H 0.0 **** 0.06
22439 H 84.10623131597316 26.344801955644073 64.63070220809402 H 0.0 **** 0.06
22440 H 83.73257348201759 27.546256500716424 65.8896573036642 H 0.0 **** 0.06
22441 C 87.20755889081927 81.1413868440594 98.13824315943884 C 0.0 **** -0.24
22442 H 87.48228121938523 81.02991722341362 99.1870680782256 H 0.0 **** 0.06
22443 H 88.06545102008758 80.89608612508434 97.51085707380616 H 0.0 **** 0.06
22444 H 86.90096887056309 82.17031841385547 97.95004130200857 H 0.0 **** 0.06
22445 H 86.38258133405553 80.46786362211748 97.90522797094246 H 0.0 **** 0.06
22446 C 109.80597268064218 57.35263074463671 25.92190901755839 C 0.0 **** -0.24
22447 H 109.15705256923428 57.73143361169167 26.712129040186596 H 0.0 **** 0.06
22448 H 109.37769783353306 56.43951771253319 25.508011901135035 H 0.0 **** 0.06
22449 H 110.79140529293454 57.13727012615573 26.334224295375634 H 0.0 **** 0.06
22450 H 109.8956142843335 58.10191594748255 25.136161251819374 H 0.0 **** 0.06
22451 C 99.05638591782443 107.2933210051716 107.77220773627067 C 0.0 **** -0.24
22452 H 98.734332036293 107.26929120081223 106.730278984921 H 0.0 **** 0.06
22453 H 98.91276481245168 108.29572945145719 108.17325104530497 H 0.0 **** 0.06
22454 H 100.1111733116814 107.02537373582993 107.83201877242101 H 0.0 **** 0.06
22455 H 98.4674731966948 106.5816740401807 108.34974897717777 H 0.0 **** 0.06
22456 C 100.63871171955645 45.80234179744758 51.87309137833364 C 0.0 **** -0.24
22457 H 99.86602778391176 46.57086246915816 51.896373835165434 H 0.0 **** 0.06
22458 H 100.23853223919133 44.87281354454683 52.27794216920188 H 0.0 **** 0.06
22459 H 101.49022313517142 46.12450601681962 52.47250365885232 H 0.0 **** 0.06
22460 H 100.95912792672453 45.64244414999632 50.84298855757481 H 0.0 **** 0.06
22461 C 4.139397981929733 36.431232529323665 58.6467167558925 C 0.0 **** -0.24
22462 H 3.4483314576989272 37.22095575291735 58.944673047988374 H 0.0 **** 0.06
22463 H 4.709452049811304 36.10137050266741 59.51502023713016 H 0.0 **** 0.06
22464 H 4.821630151575974 36.813849918336274 57.88745937781135 H 0.0 **** 0.06
22465 H 3.5771365256969716 35.590955332361915 58.2394516833665 H 0.0 **** 0.06
22466 C 46.098119510736915 93.59581510392297 70.89362749728765 C 0.0 **** -0.24
22467 H 45.47082454749681 93.85520904377353 70.04079611456007 H 0.0 **** 0.06
22468 H 47.12876029406238 93.88669175051402 70.68714509175982 H 0.0 **** 0.06
22469 H 46.05157363152821 92.52118504270996 71.06593590184654 H 0.0 **** 0.06
22470 H 45.74236836495817 94.12232468099847 71.78010616465036 H 0.0 **** 0.06
22471 C 68.05969589807503 105.88195626855156 78.9866087900351 C 0.0 **** -0.24
22472 H 67.65323114854502 106.61120487179629 79.68722596340479 H 0.0 **** 0.06
22473 H 67.28637832584143 105.59224260486364 78.27455294290411 H 0.0 **** 0.06
22474 H 68.3979420997881 105.00234805775132 79.53427698732229 H 0.0 **** 0.06
22475 H 68.90107350286128 106.32230883002462 78.45175657678746 H 0.0 **** 0.06
22476 C 102.07863381294914 98.65642245807594 107.67169090511129 C 0.0 **** -0.24
22477 H 101.23385421602728 98.33736572034731 107.06115442735893 H 0.0 **** 0.06
22478 H 102.46092867733 99.60565034397116 107.29594281580054 H 0.0 **** 0.06
22479 H 102.86574274687968 97.90367171590852 107.624835642792 H 0.0 **** 0.06
22480 H 101.7539597332422 98.77804252013618 108.70510798432775 H 0.0 **** 0.06
22481 C 93.21285199586855 38.80008991396528 65.60347342992183 C 0.0 **** -0.24
22482 H 93.90276713717219 38.00839329877007 65.30933368655016 H 0.0 **** 0.06
22483 H 93.57163412304891 39.75498810060253 65.21959144004045 H 0.0 **** 0.06
22484 H 93.15397974514552 38.84375736520428 66.69098791880928 H 0.0 **** 0.06
22485 H 92.22475929186268 38.59077172034591 65.193946578442 H 0.0 **** 0.06
22486 C 63.98276878423772 15.290253297852018 90.61799386736357 C 0.0 **** -0.24
22487 H 63.16486724989748 14.857239725313065 90.04154532894903 H 0.0 **** 0.06
22488 H 64.90409576233056 15.238076997525411 90.03702928741944 H 0.0 **** 0.06
22489 H 64.10570577493631 14.735243295635115 91.54759641837877 H 0.0 **** 0.06
22490 H 63.75447600824627 16.33239258820322 90.84457440962126 H 0.0 **** 0.06
22491 C 52.29230360759743 108.79343615989966 12.655469984259213 C 0.0 **** -0.24
22492 H 52.88224332050902 108.73805783850882 13.569792067919284 H 0.0 **** 0.06
22493 H 52.05110299667626 107.78504707200395 12.316845771824955 H 0.0 **** 0.06
22494 H 52.86637668810687 109.30752768266117 11.883792831103957 H 0.0 **** 0.06
22495 H 51.37146104106398 109.34200443309244 12.849475863693076 H 0.0 **** 0.06
22496 C 107.70405125942459 94.55427201828263 91.43109001432384 C 0.0 **** -0.24
22497 H 108.41992562117323 94.87663661787866 92.18759814461504 H 0.0 **** 0.06
22498 H 107.66787712275782 95.2913419768559 90.6282544643469 H 0.0 **** 0.06
22499 H 106.71681630081703 94.45958848148652 91.88264143336303 H 0.0 **** 0.06
22500 H 108.01376388137726 93.59051306796368 91.02638844984307 H 0.0 **** 0.06
22501 C 51.229100390892114 105.67237879698177 39.80395042740059 C 0.0 **** -0.24
22502 H 52.29886692486162 105.73098573735973 39.60229139299216 H 0.0 **** 0.06
22503 H 50.767344904927256 104.9689966734212 39.11038783885287 H 0.0 **** 0.06
22504 H 50.78028325744967 106.65760407306342 39.67463325331909 H 0.0 **** 0.06
22505 H 51.07047484918945 105.3316006404965 40.82688625932269 H 0.0 **** 0.06
22506 C 61.12272887750652 3.5017732651884756 60.08195344401146 C 0.0 **** -0.24
22507 H 60.739502293200076 3.057816885535061 61.00014765646884 H 0.0 **** 0.06
22508 H 60.28820554312773 3.7838300413934434 59.438855149494174 H 0.0 **** 0.06
22509 H 61.75228383225161 2.778138271821618 59.563535132251275 H 0.0 **** 0.06
22510 H 61.710750224689264 4.3865629179968835 60.323174600110846 H 0.0 **** 0.06
22511 C 16.504339205421502 20.85589158785649 82.57862498095636 C 0.0 **** -0.24
22512 H 15.828464899891486 20.378962349824405 83.28950968729845 H 0.0 **** 0.06
22513 H 15.942526263511695 21.16554472000928 81.69648508251441 H 0.0 **** 0.06
22514 H 17.282177816514434 20.15061202131642 82.28688305439914 H 0.0 **** 0.06
22515 H 16.961044070401698 21.729232795542174 83.04349304376296 H 0.0 **** 0.06
22516 C 78.44367185034753 107.59456531668656 67.57112650743451 C 0.0 **** -0.24
22517 H 78.96541770310421 108.43215730424632 67.1071065315828 H 0.0 **** 0.06
22518 H 77.36826223106783 107.76596490544847 67.5246089544251 H 0.0 **** 0.06
22519 H 78.7535628787009 107.50509811822621 68.61176893443862 H 0.0 **** 0.06
22520 H 78.68831536534623 106.6755896780509 67.03903643492009 H 0.0 **** 0.06
22521 C 37.8690661164992 62.095313435428565 32.02176028424208 C 0.0 **** -0.24
22522 H 37.56097169314033 61.11901367590235 32.39604916215151 H 0.0 **** 0.06
22523 H 38.914509270468756 62.26967461444758 32.280981202158756 H 0.0 **** 0.06
22524 H 37.24910072360255 62.86979257807852 32.47371442172849 H 0.0 **** 0.06
22525 H 37.75341292434881 62.12235588341291 30.9387115584845 H 0.0 **** 0.06
22526 C 29.656821924955352 94.3552289668551 83.18892640808122 C 0.0 **** -0.24
22527 H 30.375577418152602 93.71183095775075 83.69599452329794 H 0.0 **** 0.06
22528 H 28.64858859983738 93.97491625569943 83.35282989868779 H 0.0 **** 0.06
22529 H 29.871610661503354 94.36724203630736 82.12014716736485 H 0.0 **** 0.06
22530 H 29.733130432230325 95.36824408120562 83.58593274451937 H 0.0 **** 0.06
22531 C 75.95530981596721 105.41845810318016 40.491125531995266 C 0.0 **** -0.24
22532 H 75.76794843813457 105.76504500020414 39.474619843747746 H 0.0 **** 0.06
22533 H 76.9867041102886 105.640716633224 40.76641366860096 H 0.0 **** 0.06
22534 H 75.78764833849561 104.34298368427223 40.545032231969515 H 0.0 **** 0.06
22535 H 75.27848752575062 105.92574849031512 41.1778369286414 H 0.0 **** 0.06
22536 C 21.778862781881642 97.71427455046967 75.281464496788 C 0.0 **** -0.24
22537 H 22.66245038605351 97.2414287325995 75.70963187757212 H 0.0 **** 0.06
22538 H 21.13625872780605 96.95128146836123 74.84175190886734 H 0.0 **** 0.06
22539 H 22.084162866216815 98.42041066571488 74.50943393649862 H 0.0 **** 0.06
22540 H 21.23459553386344 98.2429314381923 76.06308046906298 H 0.0 **** 0.06
22541 C 18.17093593254397 47.71146389267227 40.163149440581414 C 0.0 **** -0.24
22542 H 17.994453202660594 48.082751387032886 41.173084609795175 H 0.0 **** 0.06
22543 H 19.07664631700555 48.166151426631814 39.762846487648474 H 0.0 **** 0.06
22544 H 17.322668503339717 47.96903310354526 39.52896096399284 H 0.0 **** 0.06
22545 H 18.288592778891687 46.62811832517059 40.18945164568957 H 0.0 **** 0.06
22546 C 61.38659086841521 102.43217124108584 65.97776384330216 C 0.0 **** -0.24
22547 H 60.823847441298085 102.49493925054499 66.90909061728176 H 0.0 **** 0.06
22548 H 60.72967947543543 102.6650295279441 65.13983545646592 H 0.0 **** 0.06
22549 H 61.78330121474444 101.42326243281757 65.86028394167522 H 0.0 **** 0.06
22550 H 62.21061250236154 103.1452229889866 66.00351469937799 H 0.0 **** 0.06
22551 C 12.531238520482233 112.48552352195637 77.87124189702645 C 0.0 **** -0.24
22552 H 13.535163220152956 112.80973378204763 77.59880216518728 H 0.0 **** 0.06
22553 H 12.560764688026723 111.44358909021969 78.19142536239488 H 0.0 **** 0.06
22554 H 11.871061712305043 112.58353899435748 77.00985634760559 H 0.0 **** 0.06
22555 H 12.158530149641756 113.1052306333246 78.68704710808593 H 0.0 **** 0.06
22556 C 8.657138361505204 77.93525194510727 39.09674768471484 C 0.0 **** -0.24
22557 H 7.937757542909424 78.14956598506504 39.886919987252526 H 0.0 **** 0.06
22558 H 9.266999571463487 77.07786312431526 39.38327050715657 H 0.0 **** 0.06
22559 H 9.298340435574431 78.80373981966503 38.94482241274606 H 0.0 **** 0.06
22560 H 8.124651041307914 77.71071339438464 38.17274431527869 H 0.0 **** 0.06
22561 C 87.26491691336008 20.623149623561353 102.5736000922833 C 0.0 **** -0.24
22562 H 86.5081832296641 21.350059031877205 102.86768233502869 H 0.0 **** 0.06
22563 H 87.05058985267863 19.66418771433662 103.04666308152258 H 0.0 **** 0.06
22564 H 88.24734199739316 20.97317841971635 102.88992797563606 H 0.0 **** 0.06
22565 H 87.25232582777534 20.504502996073466 101.49034113304509 H 0.0 **** 0.06
22566 C 100.88558815253802 112.39676368261942 6.638342344433255 C 0.0 **** -0.24
22567 H 101.4848332131761 113.22113105463129 7.025981861312289 H 0.0 **** 0.06
22568 H 99.87420870349351 112.74919340004448 6.430425089722746 H 0.0 **** 0.06
22569 H 100.84745524359057 111.59635418524763 7.377330218595873 H 0.0 **** 0.06
22570 H 101.33554758390429 112.02205149600361 5.71931851127114 H 0.0 **** 0.06
22571 C 11.038396420004972 75.43167074022523 87.57678450036406 C 0.0 **** -0.24
22572 H 10.494953615434895 74.49330065640896 87.68728362582311 H 0.0 **** 0.06
22573 H 11.086837631612298 75.7018887356569 86.5220156978931 H 0.0 **** 0.06
22574 H 12.048731926488415 75.31469568156507 87.97029132711299 H 0.0 **** 0.06
22575 H 10.522578615318537 76.21681618166838 88.12973042162105 H 0.0 **** 0.06
22576 C 114.3420103311688 55.463642931235256 19.67987564909825 C 0.0 **** -0.24
22577 H 115.1581082758273 54.760610236525736 19.844629070624336 H 0.0 **** 0.06
22578 H 114.0277345367154 55.419242254792835 18.636571799384853 H 0.0 **** 0.06
22579 H 114.67923027652321 56.473534883920195 19.91535507566786 H 0.0 **** 0.06
22580 H 113.50152201540374 55.20201288845294 20.323417969335793 H 0.0 **** 0.06
22581 C 57.829109556130504 9.626138607696095 31.2690835256185 C 0.0 **** -0.24
22582 H 57.28837218206803 9.786340333807683 32.20172442154333 H 0.0 **** 0.06
22583 H 57.612458522685984 10.442123659924032 30.57927245934593 H 0.0 **** 0.06
22584 H 57.51366803707759 8.681268880288556 30.824729507854073 H 0.0 **** 0.06
22585 H 58.90010303588684 9.593877099265974 31.469290214453622 H 0.0 **** 0.06
22586 C 85.97100546644418 19.196695926060936 42.34050186857887 C 0.0 **** -0.24
22587 H 84.91666137413844 18.943321317691723 42.23019596854036 H 0.0 **** 0.06
22588 H 86.0690699844414 20.074360871971066 42.97907850755722 H 0.0 **** 0.06
22589 H 86.39716578178292 19.410814070557905 41.36019866042446 H 0.0 **** 0.06
22590 H 86.50057664688453 18.357522986890977 42.791478246442196 H 0.0 **** 0.06
22591 C 94.52444876152715 45.71360496567195 84.97276960013852 C 0.0 **** -0.24
22592 H 93.89823703881305 45.016842588967634 85.52789705498776 H 0.0 **** 0.06
22593 H 94.63456179217155 45.36519132109696 83.9450110177527 H 0.0 **** 0.06
22594 H 95.50640211372692 45.774577474866675 85.44332734759024 H 0.0 **** 0.06
22595 H 94.05941433386998 46.69965482121644 84.97388458634367 H 0.0 **** 0.06
22596 C 19.925173313559753 61.04531927713742 91.97812082010677 C 0.0 **** -0.24
22597 H 19.044387826778262 61.67401211433234 92.1090627976094 H 0.0 **** 0.06
22598 H 20.817153028577025 61.671323922671064 91.94477482467653 H 0.0 **** 0.06
22599 H 19.83777133545388 60.48683821135515 91.04688493695397 H 0.0 **** 0.06
22600 H 20.00105154024868 60.348953319438394 92.81345459917063 H 0.0 **** 0.06
22601 C 5.686131195346093 59.195168505720574 38.03520088097473 C 0.0 **** -0.24
22602 H 5.026570777640984 59.73216419770978 37.35432998874245 H 0.0 **** 0.06
22603 H 6.616577680185003 58.95093021067515 37.52086086498646 H 0.0 **** 0.06
22604 H 5.20047233523843 58.27685574419587 38.36418972213414 H 0.0 **** 0.06
22605 H 5.903174312291469 59.822173984805715 38.89976663719227 H 0.0 **** 0.06
22606 C 69.43865518465599 109.5177044111457 44.127041907811474 C 0.0 **** -0.24
22607 H 68.39550868298087 109.24204053126829 44.282860307925034 H 0.0 **** 0.06
22608 H 70.05145425328438 108.61623159331452 44.09410742471806 H 0.0 **** 0.06
22609 H 69.77235658395792 110.15332346178951 44.94715796332122 H 0.0 **** 0.06
22610 H 69.5353335467163 110.05821737353776 43.18545251465724 H 0.0 **** 0.06
22611 C 15.64661260767441 88.83788959767992 96.34794390155676 C 0.0 **** -0.24
22612 H 16.52175939447223 89.47097097359878 96.49448614724072 H 0.0 **** 0.06
22613 H 15.830094341009119 87.85720497737803 96.7872316193826 H 0.0 **** 0.06
22614 H 15.452815001610933 88.72828880133927 95.28117369336128 H 0.0 **** 0.06
22615 H 14.781658190289697 89.29597302159688 96.82934402556664 H 0.0 **** 0.06
22616 C 82.23996203121999 57.683329834773076 3.4936919628722762 C 0.0 **** -0.24
22617 H 82.85610206922459 57.10541061167737 2.8049450042841784 H 0.0 **** 0.06
22618 H 82.02165625254085 58.65800121357779 3.056785944729313 H 0.0 **** 0.06
22619 H 82.77371253117636 57.816960927771675 4.433862483211755 H 0.0 **** 0.06
22620 H 81.30575971619282 57.150911867516584 3.6792690122208285 H 0.0 **** 0.06
22621 C 8.31729107058105 115.41956290252489 70.72468335550295 C 0.0 **** -0.24
22622 H 7.365190949803903 114.8934744529925 70.78968199012718 H 0.0 **** 0.06
22623 H 8.196285990336975 116.31513823668337 70.11426119475112 H 0.0 **** 0.06
22624 H 9.062567948418575 114.76714877950565 70.27021474895186 H 0.0 **** 0.06
22625 H 8.644280898151138 115.7024360233259 71.72511775495552 H 0.0 **** 0.06
22626 C 87.50933211172443 34.02641430547001 15.469991764619675 C 0.0 **** -0.24
22627 H 86.51340235777882 33.94591510048883 15.033500754891072 H 0.0 **** 0.06
22628 H 88.16194638536078 33.275088747414344 15.025518974446538 H 0.0 **** 0.06
22629 H 87.44737456247994 33.86443006782116 16.54627608747204 H 0.0 **** 0.06
22630 H 87.91219850807764 35.02067941077594 15.274650592550834 H 0.0 **** 0.06
22631 C 83.22059766992886 22.529354545213124 66.69874195773116 C 0.0 **** -0.24
22632 H 83.30090465936858 22.43678717495206 65.61535391080707 H 0.0 **** 0.06
22633 H 84.18940209074255 22.322687223294082 67.15350691516323 H 0.0 **** 0.06
22634 H 82.48467521550964 21.8167689513881 67.07091053974398 H 0.0 **** 0.06
22635 H 82.90815350489304 23.541853567291497 66.95420413576204 H 0.0 **** 0.06
22636 C 7.519615351385728 76.03762656187202 52.37472183409875 C 0.0 **** -0.24
22637 H 8.416254166268573 75.99717561050255 52.99284729554421 H 0.0 **** 0.06
22638 H 6.741718726553332 76.59345586080232 52.899342891196056 H 0.0 **** 0.06
22639 H 7.1696967803106055 75.02510108774376 52.174860174042124 H 0.0 **** 0.06
22640 H 7.749864136679575 76.5351734394103 51.432826864013464 H 0.0 **** 0.06
22641 C 92.34798167284049 4.379181875275025 62.299419580792446 C 0.0 **** -0.24
22642 H 93.37360305192942 4.091773520777242 62.53258437703926 H 0.0 **** 0.06
22643 H 91.84402510872599 4.695356407644814 63.21207610501901 H 0.0 **** 0.06
22644 H 91.82159223391318 3.526727888411015 61.86844279172118 H 0.0 **** 0.06
22645 H 92.35537767658747 5.20165551691769 61.58395051804568 H 0.0 **** 0.06
22646 C 106.9999023773746 115.33612548112808 13.200637346254837 C 0.0 **** -0.24
22647 H 106.96535908322637 114.87086457975569 14.185823428751405 H 0.0 **** 0.06
22648 H 105.99745578005866 115.65731149952543 12.915825168891843 H 0.0 **** 0.06
22649 H 107.37155087692959 114.61604545424112 12.472680881901482 H 0.0 **** 0.06
22650 H 107.66531595287562 116.19958381815945 13.22944859971875 H 0.0 **** 0.06
22651 C 94.48035580842765 103.52322653367186 87.430643642737 C 0.0 **** -0.24
22652 H 93.6911886777246 104.23386884890236 87.18498474060172 H 0.0 **** 0.06
22653 H 95.42412491465072 103.86810562168324 87.00595557967907 H 0.0 **** 0.06
22654 H 94.23009021955016 102.54661855418091 87.01535990067127 H 0.0 **** 0.06
22655 H 94.57524135413325 103.44434858764579 88.51275382570705 H 0.0 **** 0.06
22656 C 52.607701977896795 76.72657081996152 43.16462943773308 C 0.0 **** -0.24
22657 H 51.768144516798316 77.42078433430726 43.133898359602995 H 0.0 **** 0.06
22658 H 52.398199328418514 75.93558233379079 43.88471790975896 H 0.0 **** 0.06
22659 H 53.50999986451984 77.26080250413435 43.464340394674764 H 0.0 **** 0.06
22660 H 52.75485409491603 76.29073678439474 42.17735419721953 H 0.0 **** 0.06
22661 C 45.1870956734611 99.14600617060748 7.658656914481478 C 0.0 **** -0.24
22662 H 45.0379848749796 98.5462063465709 8.555729719302743 H 0.0 **** 0.06
22663 H 44.614951005843125 100.07106958870362 7.740533664639807 H 0.0 **** 0.06
22664 H 44.8490844244871 98.5859485666404 6.786601614253799 H 0.0 **** 0.06
22665 H 46.245293832289974 99.38294048479848 7.551235757176672 H 0.0 **** 0.06
22666 C 86.58041110066011 52.36152390548776 44.72958691165326 C 0.0 **** -0.24
22667 H 87.44140729717225 52.41038001744312 45.39653983968827 H 0.0 **** 0.06
22668 H 86.82475764420911 52.85030688791261 43.78583822499019 H 0.0 **** 0.06
22669 H 85.73237693117056 52.865319082951174 45.19266031967004 H 0.0 **** 0.06
22670 H 86.32559862072662 51.317705455310005 44.54360236215035 H 0.0 **** 0.06
22671 C 46.615713144803124 13.827751210510428 91.12006865187868 C 0.0 **** -0.24
22672 H 46.8467506770852 12.821639768341925 90.77061914350497 H 0.0 **** 0.06
22673 H 46.39321440015618 13.799967563226232 92.18744581822494 H 0.0 **** 0.06
22674 H 45.75003092193279 14.210720617910226 90.57798897178816 H 0.0 **** 0.06
22675 H 47.4715412364244 14.479053729081159 90.94457841571983 H 0.0 **** 0.06
22676 C 68.94365154300175 112.2547996004545 63.39911059849672 C 0.0 **** -0.24
22677 H 68.36979328657262 113.13805894684401 63.1167681755374 H 0.0 **** 0.06
22678 H 68.42328040615958 111.35931728187187 63.058172338258146 H 0.0 **** 0.06
22679 H 69.04898354667027 112.2225269629132 64.48349853465135 H 0.0 **** 0.06
22680 H 69.93025832010605 112.29970373282691 62.93876920767468 H 0.0 **** 0.06
22681 C 84.57660568151982 71.52588457598642 3.6152775655341856 C 0.0 **** -0.24
22682 H 83.98188492148984 70.78781193255469 3.0782929563722803 H 0.0 **** 0.06
22683 H 84.70956404048025 72.40943116815802 2.991056417489375 H 0.0 **** 0.06
22684 H 85.55114869600595 71.10116360700695 3.8579390930996027 H 0.0 **** 0.06
22685 H 84.06364811849471 71.80471143717261 4.536228555732578 H 0.0 **** 0.06
22686 C 65.37892328429061 2.8215989824001184 104.89314723545463 C 0.0 **** -0.24
22687 H 64.65299668324928 2.8060596258183494 105.70573914970706 H 0.0 **** 0.06
22688 H 65.6118362299799 3.8543044845477823 104.63419658066834 H 0.0 **** 0.06
22689 H 64.96127158341821 2.3145886390577886 104.02393778949887 H 0.0 **** 0.06
22690 H 66.28887633577995 2.3110805272085315 105.20931638920699 H 0.0 **** 0.06
22691 C 10.259031212989715 4.389625344323768 4.568476865781349 C 0.0 **** -0.24
22692 H 11.263940888711176 4.281692082723152 4.159232979644571 H 0.0 **** 0.06
22693 H 10.14691639827025 3.7340208989659036 5.432129946578925 H 0.0 **** 0.06
22694 H 9.52670147214753 4.118582369738615 3.8087753827261395 H 0.0 **** 0.06
22695 H 10.101531220400844 5.423752972956368 4.873826366988084 H 0.0 **** 0.06
22696 C 25.826776517521893 21.00061494783717 13.704064102603354 C 0.0 **** -0.24
22697 H 26.487330790894475 20.327514421038924 13.156341216040687 H 0.0 **** 0.06
22698 H 24.78872936228416 20.755231623181693 13.477218902544791 H 0.0 **** 0.06
22699 H 26.0301223598112 22.029709960536685 13.406950472428406 H 0.0 **** 0.06
22700 H 26.001160577644526 20.889980112007024 14.774351769723893 H 0.0 **** 0.06
22701 C 41.67945135529081 114.9408158847719 113.4329650738769 C 0.0 **** -0.24
22702 H 41.68996559952063 115.8724072132776 113.99891614170545 H 0.0 **** 0.06
22703 H 42.69320119975151 114.69948305546568 113.11241662916116 H 0.0 **** 0.06
22704 H 41.03869425216459 115.05481487623395 112.55840910851252 H 0.0 **** 0.06
22705 H 41.29643521003766 114.13841739626326 114.06326011271489 H 0.0 **** 0.06
22706 C 67.8242962817406 16.79536746133701 17.837109734877572 C 0.0 **** -0.24
22707 H 68.80194568883846 17.249196211448776 17.67745508275533 H 0.0 **** 0.06
22708 H 67.06385414464322 17.575390108539068 17.872619909336578 H 0.0 **** 0.06
22709 H 67.82797620429017 16.24611826648112 18.778855645956156 H 0.0 **** 0.06
22710 H 67.60431593028716 16.109797920618547 17.017707695945376 H 0.0 **** 0.06
22711 C 98.1319407987384 19.804360974133857 69.23907872156693 C 0.0 **** -0.24
22712 H 97.68656900667106 20.534181910060227 68.56283399237412 H 0.0 **** 0.06
22713 H 97.74195033975593 18.812010344557848 69.01139196828643 H 0.0 **** 0.06
22714 H 97.88469447133511 20.065883690719318 70.26841429885602 H 0.0 **** 0.06
22715 H 99.21462605859149 19.806766453594463 69.11347860447165 H 0.0 **** 0.06
22716 C 9.367114955454468 94.45109260986567 51.005978314190706 C 0.0 **** -0.24
22717 H 8.351322041080152 94.05733305823989 50.98757520059341 H 0.0 **** 0.06
22718 H 9.554374990885577 94.92654644306839 51.968726401852436 H 0.0 **** 0.06
22719 H 9.487322581604786 95.18404563182469 50.20840729506439 H 0.0 **** 0.06
22720 H 10.075699295602249 93.63506228843494 50.85906206038082 H 0.0 **** 0.06
22721 C 47.94664856361953 45.20229610514605 44.62496726058126 C 0.0 **** -0.24
22722 H 48.9700387657075 45.139759018746744 44.25474412157325 H 0.0 **** 0.06
22723 H 47.7646003221509 44.390781897306 45.329569052859995 H 0.0 **** 0.06
22724 H 47.25191607155455 45.12083768605238 43.788872255056106 H 0.0 **** 0.06
22725 H 47.80105353155989 46.158790342853095 45.12664185066018 H 0.0 **** 0.06
22726 C 31.785725362857335 93.91908307502003 66.87766191017081 C 0.0 **** -0.24
22727 H 32.53237658164751 94.62112189812927 66.5071393389432 H 0.0 **** 0.06
22728 H 31.523066476801347 93.21677986854702 66.08648425984399 H 0.0 **** 0.06
22729 H 30.896117814165507 94.4654830349483 67.19050377345656 H 0.0 **** 0.06
22730 H 32.19375383053428 93.37134253914496 67.72841789961998 H 0.0 **** 0.06
22731 C 33.90685921784105 36.72015436602757 81.20073162114596 C 0.0 **** -0.24
22732 H 33.45606185106649 36.05298882822709 81.93439458694141 H 0.0 **** 0.06
22733 H 33.13595983912453 37.09051987296365 80.52464352124419 H 0.0 **** 0.06
22734 H 34.65971591931767 36.17572320037539 80.62922208947938 H 0.0 **** 0.06
22735 H 34.37632866576055 37.56025466862493 81.71258655836895 H 0.0 **** 0.06
22736 C 94.85356057846269 99.53990387032123 96.57486990053826 C 0.0 **** -0.24
22737 H 94.19906769430403 100.0684632294491 97.26829736581874 H 0.0 **** 0.06
22738 H 94.76710345032134 99.98381949390735 95.58323356320295 H 0.0 **** 0.06
22739 H 94.56408177409656 98.49085990520194 96.52995628132612 H 0.0 **** 0.06
22740 H 95.88566466091788 99.61749571234121 96.91906361869803 H 0.0 **** 0.06
22741 C 60.30808565701969 72.70176622149023 56.029576775968685 C 0.0 **** -0.24
22742 H 60.66953334247586 71.8857535494808 55.40480531910915 H 0.0 **** 0.06
22743 H 59.316226462974 73.0050819167264 55.69407789951489 H 0.0 **** 0.06
22744 H 60.991858960630864 73.54706714642776 55.95368899903771 H 0.0 **** 0.06
22745 H 60.254791904243206 72.36957630761884 57.06708546371223 H 0.0 **** 0.06
22746 C 49.42494160005219 106.31183956625351 49.572010755984024 C 0.0 **** -0.24
22747 H 49.454007669501564 107.03640526512044 50.38633705112011 H 0.0 **** 0.06
22748 H 50.442774446304426 106.04801355642302 49.28343887426777 H 0.0 **** 0.06
22749 H 48.90534687353539 106.74609346477739 48.71729999682617 H 0.0 **** 0.06
22750 H 48.896667927464335 105.41676731580903 49.90119941819597 H 0.0 **** 0.06
22751 C 25.1299667560466 73.04222710965506 12.727949523396973 C 0.0 **** -0.24
22752 H 24.196323820759375 73.50234406665496 12.404181371433992 H 0.0 **** 0.06
22753 H 24.938990866903637 72.39281266660929 13.58172794360675 H 0.0 **** 0.06
22754 H 25.836740510360897 73.8209146561573 13.014866105468286 H 0.0 **** 0.06
22755 H 25.548205087859856 72.45582060377727 11.9096282653922 H 0.0 **** 0.06
22756 C 88.32518260192097 4.1144539660948 42.3311236102966 C 0.0 **** -0.24
22757 H 88.35746898771775 3.846474946925653 43.38733069569574 H 0.0 **** 0.06
22758 H 87.3479063531849 4.535629804978299 42.09390928500042 H 0.0 **** 0.06
22759 H 88.49432368651811 3.223644577497879 41.72604469777798 H 0.0 **** 0.06
22760 H 89.10024261857399 4.8510524544162195 42.1192953889458 H 0.0 **** 0.06
22761 C 90.46948905419696 105.05095278282755 93.82384980010869 C 0.0 **** -0.24
22762 H 90.96513015983972 104.86451815047633 94.77630113574958 H 0.0 **** 0.06
22763 H 90.63683211689249 104.2050952672241 93.15656353950803 H 0.0 **** 0.06
22764 H 90.87693508432908 105.95570234966934 93.37320749967347 H 0.0 **** 0.06
22765 H 89.39961145551416 105.17854914528505 93.99015876939683 H 0.0 **** 0.06
22766 C 106.40910161323691 5.176950793353484 66.31283229937812 C 0.0 **** -0.24
22767 H 106.65958428289328 6.064495355910907 65.73249740622188 H 0.0 **** 0.06
22768 H 106.23541504053175 4.3385613422032066 65.6380392390623 H 0.0 **** 0.06
22769 H 105.50851562292169 5.367086292646405 66.89654705013497 H 0.0 **** 0.06
22770 H 107.23388677636129 4.938056306648292 66.98516888587528 H 0.0 **** 0.06
22771 C 78.60903995762062 30.98043317656854 4.400820878946973 C 0.0 **** -0.24
22772 H 77.91026042335743 30.218863200567057 4.056793547301055 H 0.0 **** 0.06
22773 H 78.15233704994954 31.96572853432805 4.299607475658306 H 0.0 **** 0.06
22774 H 79.51718859027287 30.938194639363275 3.7998029919138503 H 0.0 **** 0.06
22775 H 78.85696675906233 30.799751420080128 5.447063677841101 H 0.0 **** 0.06
22776 C 58.1549167006371 41.37207506834747 31.72054795384537 C 0.0 **** -0.24
22777 H 57.62687158363886 42.03277024672761 31.032435439622375 H 0.0 **** 0.06
22778 H 57.431418714323 40.82092816783984 32.32109212250906 H 0.0 **** 0.06
22779 H 58.79499751276529 41.96492346699003 32.37424200021022 H 0.0 **** 0.06
22780 H 58.76644350552414 40.67057613932218 31.152636163771575 H 0.0 **** 0.06
22781 C 30.21352113266539 59.81588704043807 1.7828897695191888 C 0.0 **** -0.24
22782 H 30.917519460691807 59.06503706850562 1.4248420092507477 H 0.0 **** 0.06
22783 H 29.86572118372561 59.54108686945504 2.779386981946095 H 0.0 **** 0.06
22784 H 29.364380215595077 59.871474855533464 1.1032559459070992 H 0.0 **** 0.06
22785 H 30.708944855951188 60.78556418616445 1.8257160502304384 H 0.0 **** 0.06
22786 C 80.74093399674577 108.04699934016588 76.63538828638826 C 0.0 **** -0.24
22787 H 81.80057987401293 107.92856203549474 76.40794642031426 H 0.0 **** 0.06
22788 H 80.3566202848966 108.92837818738118 76.12154212369802 H 0.0 **** 0.06
22789 H 80.61127854848083 108.16677933006557 77.71007273276132 H 0.0 **** 0.06
22790 H 80.19661415683893 107.16423530327879 76.29896569908914 H 0.0 **** 0.06
22791 C 101.26987006273305 3.8768231450930504 4.062529281260481 C 0.0 **** -0.24
22792 H 101.98793313228848 3.669996202941988 3.2684539408035818 H 0.0 **** 0.06
22793 H 100.95824715395378 2.93935890708366 4.523808540269144 H 0.0 **** 0.06
22794 H 100.40014164118537 4.382889829045391 3.6415142768722433 H 0.0 **** 0.06
22795 H 101.73298305028737 4.515930455062048 4.813478474205482 H 0.0 **** 0.06
22796 C 82.45396854350258 49.660487072981766 30.65870119179067 C 0.0 **** -0.24
22797 H 83.34294004192735 50.27836676887273 30.536878199783956 H 0.0 **** 0.06
22798 H 82.48605676076257 49.16546463999373 31.629352879672126 H 0.0 **** 0.06
22799 H 82.4223637820645 48.910385002737314 29.868824906316576 H 0.0 **** 0.06
22800 H 81.5645135892559 50.287731880323406 30.599748781390105 H 0.0 **** 0.06
22801 C 40.13679824208896 18.660352006278785 115.28533226452353 C 0.0 **** -0.24
22802 H 39.89601052423174 17.61738993841183 115.49173470674101 H 0.0 **** 0.06
22803 H 41.21841458968376 18.77603165814634 115.21845305428484 H 0.0 **** 0.06
22804 H 39.75262034328924 19.286766425179984 116.09075259290873 H 0.0 **** 0.06
22805 H 39.67929593774659 18.959005580395356 114.34247957053873 H 0.0 **** 0.06
22806 C 41.91136532729888 91.72046025264925 46.88395108791902 C 0.0 **** -0.24
22807 H 42.771160490476575 91.33375866997092 46.33551895853798 H 0.0 **** 0.06
22808 H 41.014913218701196 91.17926608411048 46.581798764365516 H 0.0 **** 0.06
22809 H 41.78750915100147 92.78069857435095 46.663055386814264 H 0.0 **** 0.06
22810 H 42.07311182546337 91.58786999212498 47.95358253524953 H 0.0 **** 0.06
22811 C 42.82368148222086 23.57801816969622 49.20743709603934 C 0.0 **** -0.24
22812 H 43.6251521662538 23.55652629650616 49.945556578043636 H 0.0 **** 0.06
22813 H 42.17830828640935 22.711348853789353 49.3475307810001 H 0.0 **** 0.06
22814 H 43.253770757795024 23.553791184956868 48.20542716254613 H 0.0 **** 0.06
22815 H 42.24043666375681 24.490017187557484 49.330793377550435 H 0.0 **** 0.06
22816 C 35.797017251275065 55.7969122586681 60.80077711676475 C 0.0 **** -0.24
22817 H 36.37286329654273 56.69861745855883 60.59267951574694 H 0.0 **** 0.06
22818 H 36.4566559383627 55.03082702491932 61.20896922997092 H 0.0 **** 0.06
22819 H 35.34651829101034 55.43265354056925 59.87739537739438 H 0.0 **** 0.06
22820 H 35.01302417397693 56.02492991496254 61.52215932910768 H 0.0 **** 0.06
22821 C 80.5067710430358 16.431615691876573 95.73280659486824 C 0.0 **** -0.24
22822 H 80.41826654380826 17.22373470171712 94.99010415566761 H 0.0 **** 0.06
22823 H 80.44027475125 15.462060698518101 95.23988482221762 H 0.0 **** 0.06
22824 H 79.70245640636668 16.526042754741866 96.46175858121069 H 0.0 **** 0.06
22825 H 81.4677209556498 16.516824287493648 96.24069964010897 H 0.0 **** 0.06
22826 C 43.817804583400175 2.8201345539245217 91.74245341208467 C 0.0 **** -0.24
22827 H 44.73926802304902 2.5956383567440238 91.20393672704103 H 0.0 **** 0.06
22828 H 43.96674599522834 3.701391306387409 92.36605306075391 H 0.0 **** 0.06
22829 H 43.54902010152961 1.9703894559203778 92.37040783346765 H 0.0 **** 0.06
22830 H 43.017780086824814 3.010816599246496 91.02693560552642 H 0.0 **** 0.06
22831 C 13.55759322180775 71.80354870507799 53.565872301439754 C 0.0 **** -0.24
22832 H 13.325042250268524 72.7562529406012 54.041805329354816 H 0.0 **** 0.06
22833 H 14.304749989457207 71.27403016467457 54.15743249365093 H 0.0 **** 0.06
22834 H 13.94717388729049 71.98466719383114 52.56389846122795 H 0.0 **** 0.06
22835 H 12.651843283274786 71.20065168256585 53.4995941586682 H 0.0 **** 0.06
22836 C 32.454246379762424 49.10684716950743 104.13028853680275 C 0.0 **** -0.24
22837 H 32.099320448634785 50.09452686889291 103.83599965113453 H 0.0 **** 0.06
22838 H 33.516649111714514 49.16031453951874 104.37161886240398 H 0.0 **** 0.06
22839 H 32.303025591915286 48.40795146939256 103.3075239064087 H 0.0 **** 0.06
22840 H 31.899257255094255 48.766882662531856 105.00454007290101 H 0.0 **** 0.06
22841 C 32.70259416528961 64.64667688868013 9.164467778614398 C 0.0 **** -0.24
22842 H 31.664522535719215 64.47954656957765 8.875896570721416 H 0.0 **** 0.06
22843 H 32.945413821849115 65.70324362886583 9.04915117133175 H 0.0 **** 0.06
22844 H 33.35705668819176 64.0521522916834 8.52716105920683 H 0.0 **** 0.06
22845 H 32.84237592622583 64.35267322892747 10.204585293857154 H 0.0 **** 0.06
22846 C 24.854746854309496 5.648461472960889 41.80195647845526 C 0.0 **** -0.24
22847 H 24.146853927590627 6.476280417328667 41.85267139758029 H 0.0 **** 0.06
22848 H 24.4163003812871 4.766661059926534 42.26983500004922 H 0.0 **** 0.06
22849 H 25.7708542068587 5.921221705401393 42.32526011300679 H 0.0 **** 0.06
22850 H 25.083620523293746 5.430801239533068 40.758355278869416 H 0.0 **** 0.06
22851 C 104.74391456510804 99.83208843611838 6.633239086387107 C 0.0 **** -0.24
22852 H 105.37479558672726 100.58636484957884 6.162281742994878 H 0.0 **** 0.06
22853 H 105.3613133357191 98.99436995511769 6.958199213721883 H 0.0 **** 0.06
22854 H 104.00135343951064 99.48058333794019 5.917214178443828 H 0.0 **** 0.06
22855 H 104.23985905019728 100.26852745947355 7.49516862825601 H 0.0 **** 0.06
22856 C 5.160812489766045 57.58790480908806 20.373698984464806 C 0.0 **** -0.24
22857 H 4.8062664042236065 56.55681809446827 20.38531208253574 H 0.0 **** 0.06
22858 H 4.513852725864979 58.20082585787736 21.0008547663547 H 0.0 **** 0.06
22859 H 5.141077197422817 57.96601412747225 19.35148940460473 H 0.0 **** 0.06
22860 H 6.181518527038008 57.62496917570667 20.755199979980777 H 0.0 **** 0.06
22861 C 44.45149000022309 17.707973224359165 61.50453644872965 C 0.0 **** -0.24
22862 H 44.84337466849988 17.10363549545616 62.32267694590129 H 0.0 **** 0.06
22863 H 43.47082889675866 18.098458026253923 61.7792181924205 H 0.0 **** 0.06
22864 H 44.36084223094875 17.092885470948318 60.6088274369109 H 0.0 **** 0.06
22865 H 45.131070834615 18.537197494452073 61.30836931736786 H 0.0 **** 0.06
22866 C 17.249755397364382 86.86149048565943 49.850298188558156 C 0.0 **** -0.24
22867 H 17.274795218397315 87.72294004235368 49.181944017737806 H 0.0 **** 0.06
22868 H 17.845433763528206 86.05383322724214 49.424359674772745 H 0.0 **** 0.06
22869 H 16.21883334817312 86.52844416453217 49.97373837335965 H 0.0 **** 0.06
22870 H 17.65911389563547 87.14291223888324 50.82038475992141 H 0.0 **** 0.06
22871 C 13.420616661253575 50.595108741002036 80.52926979393072 C 0.0 **** -0.24
22872 H 13.601143582395991 49.52021717792297 80.51567876251559 H 0.0 **** 0.06
22873 H 14.353799110052847 51.11772224531995 80.74016127095808 H 0.0 **** 0.06
22874 H 12.688764689778111 50.82996374766026 81.30285458830696 H 0.0 **** 0.06
22875 H 13.037833879066625 50.91163511411651 79.55954205225635 H 0.0 **** 0.06
22876 C 21.659338409344926 77.48011162243023 92.39846021140353 C 0.0 **** -0.24
22877 H 21.881853171789913 77.76754973400267 91.37079437373083 H 0.0 **** 0.06
22878 H 21.294715450907148 76.45272716756836 92.41603498314214 H 0.0 **** 0.06
22879 H 20.89641355212987 78.14356898124709 92.80445835226618 H 0.0 **** 0.06
22880 H 22.565122220389455 77.55489708478103 93.0002005024597 H 0.0 **** 0.06
22881 C 14.099167029230074 75.97199652551285 38.49657608893597 C 0.0 **** -0.24
22882 H 15.121470587739623 75.96939014652025 38.11902321862925 H 0.0 **** 0.06
22883 H 13.667028897019804 74.97796170253957 38.38401976403445 H 0.0 **** 0.06
22884 H 13.506314924785357 76.6928780484044 37.93324245041315 H 0.0 **** 0.06
22885 H 14.101958582982888 76.2496649971041 39.551550540571945 H 0.0 **** 0.06
22886 C 16.18498569009634 65.92378366975848 66.61289152132707 C 0.0 **** -0.24
22887 H 16.355341058660002 65.41570166828683 67.56167824148642 H 0.0 **** 0.06
22888 H 17.02039274393303 66.59118380816479 66.4031282743631 H 0.0 **** 0.06
22889 H 15.262205306746324 66.50162626922229 66.67108850453012 H 0.0 **** 0.06
22890 H 16.10104417051795 65.18463136223505 65.8153344258321 H 0.0 **** 0.06
22891 C 104.0074899513492 82.17933307397152 10.923030309739701 C 0.0 **** -0.24
22892 H 104.09567425429255 81.31591923926443 10.26302904001254 H 0.0 **** 0.06
22893 H 103.3387882911619 82.91322376485326 10.472781357288934 H 0.0 **** 0.06
22894 H 104.99107012707533 82.62493955828536 11.070927030063253 H 0.0 **** 0.06
22895 H 103.60442844138831 81.86212368011246 11.884528173926178 H 0.0 **** 0.06
22896 C 87.07631091245989 111.44867531992975 83.67644491041642 C 0.0 **** -0.24
22897 H 86.36672981861835 111.82594137913492 84.41275363596125 H 0.0 **** 0.06
22898 H 87.69706683711962 110.67662132215254 84.1328321924176 H 0.0 **** 0.06
22899 H 87.70964826191353 112.26517501498466 83.32990690233703 H 0.0 **** 0.06
22900 H 86.5331258427851 111.02621780257473 82.83192486775482 H 0.0 **** 0.06
22901 C 32.41466103021443 73.60795329637014 74.1970773553632 C 0.0 **** -0.24
22902 H 33.141026093808335 73.91567708213046 73.44552671514327 H 0.0 **** 0.06
22903 H 32.92573836356033 73.42187992484135 75.14207960749036 H 0.0 **** 0.06
22904 H 31.915318244629475 72.6967756164816 73.86834410977173 H 0.0 **** 0.06
22905 H 31.67594232855984 74.39824166652821 74.3325526485466 H 0.0 **** 0.06
22906 C 103.16054686071038 72.44067644406992 101.51591088694475 C 0.0 **** -0.24
22907 H 102.65551589091098 71.50162068244539 101.74224371835895 H 0.0 **** 0.06
22908 H 103.66340972627975 72.80787030323758 102.41044436894049 H 0.0 **** 0.06
22909 H 102.42863122205193 73.17521304908502 101.18184209688347 H 0.0 **** 0.06
22910 H 103.89535783993321 72.27654044168105 100.72758496102169 H 0.0 **** 0.06
22911 C 56.34012489332419 31.591797536191393 77.4229862956403 C 0.0 **** -0.24
22912 H 55.95790182459625 32.10433424467655 78.30614440125146 H 0.0 **** 0.06
22913 H 57.3369056160262 31.203406560595653 77.6322067539486 H 0.0 **** 0.06
22914 H 56.38927448165275 32.29150729138607 76.58881358185403 H 0.0 **** 0.06
22915 H 55.67491494292998 30.76663114832172 77.16579222337498 H 0.0 **** 0.06
22916 C 10.096113106130105 59.29267539230588 31.581009841720373 C 0.0 **** -0.24
22917 H 9.02431508110493 59.491565441616586 31.60322100365815 H 0.0 **** 0.06
22918 H 10.40806210891023 59.09609964624872 30.555793626258406 H 0.0 **** 0.06
22919 H 10.316478165040138 58.42501852956161 32.20212521799945 H 0.0 **** 0.06
22920 H 10.633464350220947 60.16003662116725 31.96473722540088 H 0.0 **** 0.06
22921 C 85.14691986843165 103.40809394265307 92.96623131591612 C 0.0 **** -0.24
22922 H 85.28642237060664 102.8403247791228 93.88626924652898 H 0.0 **** 0.06
22923 H 85.55244601711458 102.84321641280172 92.12660133986961 H 0.0 **** 0.06
22924 H 85.66682997264438 104.3626445975107 93.04679233053317 H 0.0 **** 0.06
22925 H 84.08434173476218 103.5851718381144 92.80680874999958 H 0.0 **** 0.06
22926 C 24.366484452344423 3.5222358819326534 66.07954607265734 C 0.0 **** -0.24
22927 H 23.350888932469843 3.3049236902311225 65.74923154622184 H 0.0 **** 0.06
22928 H 24.385429830968974 3.6023276101408044 67.16659711184157 H 0.0 **** 0.06
22929 H 24.698579465353987 4.462528836932876 65.63931474352849 H 0.0 **** 0.06
22930 H 25.02990934019391 2.717539872197724 65.76274597774578 H 0.0 **** 0.06
22931 C 108.25743679555927 112.6862876207096 53.522197202716164 C 0.0 **** -0.24
22932 H 108.54480531715805 113.38777261097951 52.739553194456654 H 0.0 **** 0.06
22933 H 109.1256572029787 112.09735573284564 53.81900883698099 H 0.0 **** 0.06
22934 H 107.47913364945919 112.02174818499083 53.146115901331505 H 0.0 **** 0.06
22935 H 107.88024733745681 113.2365481194085 54.38422217500248 H 0.0 **** 0.06
22936 C 13.382924928110924 111.65564220466077 91.25911187429887 C 0.0 **** -0.24
22937 H 13.366702157090913 110.7377548479127 90.67229323006082 H 0.0 **** 0.06
22938 H 13.696999345578718 112.4864748239992 90.62620188657526 H 0.0 **** 0.06
22939 H 14.083350883558865 111.54391955288574 92.08784052990461 H 0.0 **** 0.06
22940 H 12.385852827225449 111.85384339228409 91.65160013373381 H 0.0 **** 0.06
22941 C 13.694968515654779 111.56695236645025 73.8851937711222 C 0.0 **** -0.24
22942 H 12.67902855540052 111.93939731966888 74.01810099998016 H 0.0 **** 0.06
22943 H 14.096521992380701 111.9371056540097 72.94222035341932 H 0.0 **** 0.06
22944 H 13.68361313487054 110.47739255366578 73.87311135579677 H 0.0 **** 0.06
22945 H 14.32006509071536 111.91540567614065 74.70850794292733 H 0.0 **** 0.06
22946 C 22.78698013105442 73.16322706326176 17.73830506553969 C 0.0 **** -0.24
22947 H 23.851838052849416 73.22651443100288 17.962103779893027 H 0.0 **** 0.06
22948 H 22.63308532722401 72.49849450744583 16.888732509133092 H 0.0 **** 0.06
22949 H 22.406964469720492 74.15652455919701 17.496212470789658 H 0.0 **** 0.06
22950 H 22.256742636976824 72.77318660618008 18.606633430235092 H 0.0 **** 0.06
22951 C 31.43216030794298 51.98812072870037 94.98048341251871 C 0.0 **** -0.24
22952 H 30.53732650725422 51.39735384356558 94.7826436931868 H 0.0 **** 0.06
22953 H 32.29120936089143 51.51741118544484 94.50144911724175 H 0.0 **** 0.06
22954 H 31.599496482824037 52.044343219378966 96.05558625785159 H 0.0 **** 0.06
22955 H 31.2984255854696 52.993218896908786 94.58046309854069 H 0.0 **** 0.06
22956 C 91.41887791408836 56.375700621429075 84.48465231496988 C 0.0 **** -0.24
22957 H 90.74677533311669 55.542825395500586 84.69094949090783 H 0.0 **** 0.06
22958 H 92.002056480298 56.60078187044854 85.3774175290832 H 0.0 **** 0.06
22959 H 90.83445055483473 57.2512860279424 84.20131253021702 H 0.0 **** 0.06
22960 H 92.09023687536028 56.10689367429552 83.66992938800752 H 0.0 **** 0.06
22961 C 79.9265089097586 71.40038920401594 17.997636064564745 C 0.0 **** -0.24
22962 H 79.80877858526766 70.68097485449965 18.80778672903915 H 0.0 **** 0.06
22963 H 80.56192997555841 72.22187740727253 18.329590571452513 H 0.0 **** 0.06
22964 H 78.94883349098524 71.78925577328334 17.71239732342707 H 0.0 **** 0.06
22965 H 80.38511739587003 70.90884427123166 17.138835466182314 H 0.0 **** 0.06
22966 C 21.43031886413769 71.01408234933508 104.55359507404756 C 0.0 **** -0.24
22967 H 20.696547130653983 71.44244671143394 105.23694097085325 H 0.0 **** 0.06
22968 H 22.153237826820146 71.77969804524058 104.269309269411 H 0.0 **** 0.06
22969 H 20.923313970302587 70.6433813269786 103.66291256836524 H 0.0 **** 0.06
22970 H 21.947020195101516 70.1910849736294 105.04647595118837 H 0.0 **** 0.06
22971 C 77.92938169385896 40.402305174973435 111.96951095076587 C 0.0 **** -0.24
22972 H 77.64718685880013 41.33539434505667 111.48313130593412 H 0.0 **** 0.06
22973 H 78.96484560425785 40.46510916120684 112.30398770352053 H 0.0 **** 0.06
22974 H 77.82372869131923 39.57867207072735 111.2626866688844 H 0.0 **** 0.06
22975 H 77.2797767487717 40.22876045787558 112.82761014067486 H 0.0 **** 0.06
22976 C 68.54337244780999 76.77839699132927 101.79351273534888 C 0.0 **** -0.24
22977 H 67.94016658846803 76.8537104931744 100.88880221936415 H 0.0 **** 0.06
22978 H 67.89355295663023 76.82204436857072 102.6683082345292 H 0.0 **** 0.06
22979 H 69.25313146439163 77.60488488023705 101.82586161044219 H 0.0 **** 0.06
22980 H 69.08571646721049 75.83327977736624 101.79088021987735 H 0.0 **** 0.06
22981 C 81.88328213694467 115.78414885125878 99.78612190227358 C 0.0 **** -0.24
22982 H 82.79097677786211 115.89809306935305 100.37999797709428 H 0.0 **** 0.06
22983 H 81.7323222735366 114.73022621865891 99.552210023518 H 0.0 **** 0.06
22984 H 81.9832137427581 116.35161258467221 98.86025193082281 H 0.0 **** 0.06
22985 H 81.02947465069616 116.1582393272279 100.35144098906298 H 0.0 **** 0.06
22986 C 79.72401956638716 111.30360067872348 22.724629703055403 C 0.0 **** -0.24
22987 H 80.4091625034077 112.09865841694952 22.431176338307182 H 0.0 **** 0.06
22988 H 79.0424980091751 111.67535946772537 23.48969003910048 H 0.0 **** 0.06
22989 H 80.29315204756388 110.46163904087723 23.121641674808384 H 0.0 **** 0.06
22990 H 79.15207806052764 110.97739029387776 21.85530161842381 H 0.0 **** 0.06
22991 C 43.91422461006513 114.80562932580037 36.91911089113819 C 0.0 **** -0.24
22992 H 44.01231537822247 113.91309390644682 36.30213827265513 H 0.0 **** 0.06
22993 H 43.343243054797824 115.56078463831483 36.37818842380236 H 0.0 **** 0.06
22994 H 44.904385474667976 115.19593782813475 37.1531990332974 H 0.0 **** 0.06
22995 H 43.395924573106385 114.55148842349348 37.84478045443238 H 0.0 **** 0.06
22996 C 109.3855128943239 66.84339689011848 82.68248168527782 C 0.0 **** -0.24
22997 H 109.49611362552035 67.20164613244327 81.65948292875589 H 0.0 **** 0.06
22998 H 108.77611458542978 65.9398975730202 82.68697793064354 H 0.0 **** 0.06
22999 H 108.9018690789686 67.61183672388006 83.28600257715772 H 0.0 **** 0.06
23000 H 110.36906859930481 66.62153171921544 83.09740048800586 H 0.0 **** 0.06
23001 C 37.937358143720985 32.61815807615611 80.29549897241063 C 0.0 **** -0.24
23002 H 37.3554671678927 33.15460206565825 81.0461096492641 H 0.0 **** 0.06
23003 H 38.219098900382505 33.30480542036909 79.49646568531759 H 0.0 **** 0.06
23004 H 37.337775225249345 31.806305751571415 79.88437897309456 H 0.0 **** 0.06
23005 H 38.836434956709866 32.20929587571419 80.75702162919619 H 0.0 **** 0.06
23006 C 21.201707633440805 53.59331592855051 55.56418168239852 C 0.0 **** -0.24
23007 H 20.41930320257319 53.010588812147205 56.0503338877172 H 0.0 **** 0.06
23008 H 22.063370249889203 53.66908481630824 56.22664232709714 H 0.0 **** 0.06
23009 H 20.824516036283626 54.59165077736512 55.34114442923209 H 0.0 **** 0.06
23010 H 21.496928755982026 53.10173756940296 54.637339870190246 H 0.0 **** 0.06
23011 C 48.12645296993904 62.78475536585 106.76236934347463 C 0.0 **** -0.24
23012 H 49.173020399663216 62.6022287159185 106.51769156950792 H 0.0 **** 0.06
23013 H 47.54412798414694 61.885096187770785 106.56068744359197 H 0.0 **** 0.06
23014 H 47.748922884309195 63.60671233832937 106.15459365161524 H 0.0 **** 0.06
23015 H 48.040891551633024 63.043626730836706 107.81785853371298 H 0.0 **** 0.06
23016 C 35.49357126465571 53.44462251480582 7.210285576577093 C 0.0 **** -0.24
23017 H 35.06088819481411 53.69303281380687 6.240886138722246 H 0.0 **** 0.06
23018 H 35.87067535075988 54.351663868746 7.682277125397093 H 0.0 **** 0.06
23019 H 36.31259071246305 52.739253420443404 7.0717933177447065 H 0.0 **** 0.06
23020 H 34.72943505084817 52.99443379611857 7.843839450055981 H 0.0 **** 0.06
23021 C 63.47010901737353 100.04136058705964 55.53453383730306 C 0.0 **** -0.24
23022 H 63.88496759337416 99.23491044148022 56.139724810609266 H 0.0 **** 0.06
23023 H 64.27475903463305 100.69782367041455 55.202571260204536 H 0.0 **** 0.06
23024 H 62.75619038961868 100.61126605074602 56.128934789065 H 0.0 **** 0.06
23025 H 62.96378315672767 99.61929809259016 54.66521281016355 H 0.0 **** 0.06
23026 C 76.89817311623504 60.29378893995053 111.60437591188926 C 0.0 **** -0.24
23027 H 77.9478543354675 60.25459325331505 111.31398726376636 H 0.0 **** 0.06
23028 H 76.44701343856443 61.20689003712343 111.21426443505419 H 0.0 **** 0.06
23029 H 76.82208180786434 60.28575719484677 112.69194484750781 H 0.0 **** 0.06
23030 H 76.37574288304396 59.42791527451719 111.19730710122883 H 0.0 **** 0.06
23031 C 19.691835234919836 88.19648084787212 53.32779735181302 C 0.0 **** -0.24
23032 H 19.505419994856737 88.89808272246972 54.140896806572215 H 0.0 **** 0.06
23033 H 19.44729400789032 87.18651499069362 53.655280254279404 H 0.0 **** 0.06
23034 H 20.743556822247683 88.24155686562287 53.043645184084255 H 0.0 **** 0.06
23035 H 19.0734173398848 88.46127654416817 52.47026362643362 H 0.0 **** 0.06
23036 C 64.62676973512578 81.09849897308835 36.342915458859295 C 0.0 **** -0.24
23037 H 64.47301471837505 82.17198797811653 36.24118440931875 H 0.0 **** 0.06
23038 H 65.6589626679658 80.85398220245325 36.0942755755691 H 0.0 **** 0.06
23039 H 63.95443970905791 80.56911361709584 35.66608448709127 H 0.0 **** 0.06
23040 H 64.41760118918728 80.79767485172584 37.369797612471814 H 0.0 **** 0.06
23041 C 41.3044869997515 111.78395654210269 100.20308514156055 C 0.0 **** -0.24
23042 H 41.48296488453381 112.71065889851911 100.74806212695144 H 0.0 **** 0.06
23043 H 41.56336834304854 110.93527444062502 100.83670942476898 H 0.0 **** 0.06
23044 H 41.92075711953203 111.76774828366894 99.3044879273888 H 0.0 **** 0.06
23045 H 40.25299064137467 111.72265070549992 99.92352204328455 H 0.0 **** 0.06
23046 C 42.45037851742447 64.2427796262628 36.974361783303976 C 0.0 **** -0.24
23047 H 42.76669810780942 63.496700893016396 36.24571580133917 H 0.0 **** 0.06
23048 H 42.015738109776976 63.743519813644326 37.84038367293232 H 0.0 **** 0.06
23049 H 41.706488679183394 64.89824596425137 36.52128303404062 H 0.0 **** 0.06
23050 H 43.31153414259845 64.8328285959663 37.28786098985404 H 0.0 **** 0.06
23051 C 8.781109231449136 40.75042853823845 58.413136645788086 C 0.0 **** -0.24
23052 H 7.772322134986084 40.33948960023855 58.374363807369036 H 0.0 **** 0.06
23053 H 8.748673510886945 41.75211734736115 58.84398710639584 H 0.0 **** 0.06
23054 H 9.190238165617885 40.80191050982302 57.404531355522806 H 0.0 **** 0.06
23055 H 9.410632175368221 40.10915553194468 59.028977756796394 H 0.0 **** 0.06
23056 C 49.550531726332366 61.01250555327999 90.99269653506848 C 0.0 **** -0.24
23057 H 50.54998969807397 61.12277407495969 90.57299888212668 H 0.0 **** 0.06
23058 H 49.625816468897966 60.686300098596234 92.03068489835837 H 0.0 **** 0.06
23059 H 48.9949707267462 60.271055519314814 90.41796145529995 H 0.0 **** 0.06
23060 H 49.030636243474646 61.969324587540314 90.94955083661338 H 0.0 **** 0.06
23061 C 64.86433194731222 113.47956303676631 67.11578718826036 C 0.0 **** -0.24
23062 H 64.54560959839682 113.83386942017498 66.13588282499074 H 0.0 **** 0.06
23063 H 65.48174144735196 114.24086704677882 67.59385134416385 H 0.0 **** 0.06
23064 H 65.44209473974752 112.56225670579192 67.00074446875982 H 0.0 **** 0.06
23065 H 63.987815320096956 113.28247965893519 67.73338116792615 H 0.0 **** 0.06
23066 C 98.77867096304885 100.0993839915601 73.85352393651516 C 0.0 **** -0.24
23067 H 99.28511953788859 100.47873706939868 72.96659971386555 H 0.0 **** 0.06
23068 H 97.92702886662804 100.73779977088748 74.08714660076956 H 0.0 **** 0.06
23069 H 99.47213939882505 100.09661583818848 74.69462228644574 H 0.0 **** 0.06
23070 H 98.4319215624279 99.08333845228313 73.66648961110826 H 0.0 **** 0.06
23071 C 72.09348977784848 56.418536655009234 97.18513791609466 C 0.0 **** -0.24
23072 H 72.85519151423847 56.35856997933041 96.407398211131 H 0.0 **** 0.06
23073 H 72.56528224109755 56.66199327976375 98.1375277224644 H 0.0 **** 0.06
23074 H 71.58073898686203 55.4600390290197 97.26676200756414 H 0.0 **** 0.06
23075 H 71.37281513085469 57.19565436470663 96.9276213969096 H 0.0 **** 0.06
23076 C 99.70165106029816 96.86436415580852 85.79356295261711 C 0.0 **** -0.24
23077 H 99.68015507929204 95.79838618360282 86.01984470713131 H 0.0 **** 0.06
23078 H 98.74131525982469 97.31012957917153 86.05535288831868 H 0.0 **** 0.06
23079 H 99.89117781226875 97.00687125020193 84.73054282741285 H 0.0 **** 0.06
23080 H 100.49351219515901 97.34198293296663 86.3714771853646 H 0.0 **** 0.06
23081 C 31.249922814316676 76.03835490512002 39.24874373939679 C 0.0 **** -0.24
23082 H 30.820460940674195 77.03594742477226 39.34370820057102 H 0.0 **** 0.06
23083 H 30.556701712914844 75.39439279877833 38.70782798907538 H 0.0 **** 0.06
23084 H 31.43070326853507 75.62532619715385 40.24193826177255 H 0.0 **** 0.06
23085 H 32.19179907760855 76.0988984466598 38.70427327227355 H 0.0 **** 0.06
23086 C 108.11030280183189 110.68467635585006 73.46438303909207 C 0.0 **** -0.24
23087 H 107.7031318408654 110.74794848346625 74.47383092723177 H 0.0 **** 0.06
23088 H 108.47503424600067 109.6737121905656 73.28264150679456 H 0.0 **** 0.06
23089 H 108.93220730466619 111.39221608321816 73.36027726317587 H 0.0 **** 0.06
23090 H 107.33051546070917 110.924543391594 72.7421296114772 H 0.0 **** 0.06
23091 C 38.32786993079822 48.859756369686295 16.43544328666229 C 0.0 **** -0.24
23092 H 38.414008080566674 48.30628135668894 15.500239994384629 H 0.0 **** 0.06
23093 H 37.30641061108143 48.78258034657614 16.809221733570155 H 0.0 **** 0.06
23094 H 38.574304951841306 49.907530757702204 16.261805154382728 H 0.0 **** 0.06
23095 H 39.016092730793716 48.44122259514086 17.169750720272134 H 0.0 **** 0.06
23096 C 107.91835801542739 7.526035840422173 112.96753031379887 C 0.0 **** -0.24
23097 H 107.97406846102709 7.713821922691528 114.03919920668757 H 0.0 **** 0.06
23098 H 108.5861914746825 6.704734620625766 112.70709923669955 H 0.0 **** 0.06
23099 H 108.21751897644906 8.423768034165168 112.42575431806213 H 0.0 **** 0.06
23100 H 106.89500830257916 7.262574330528645 112.69795282612174 H 0.0 **** 0.06
23101 C 52.541069863527355 100.09151936418225 100.7409570338895 C 0.0 **** -0.24
23102 H 52.83811002443446 100.6796072820916 101.6091639701434 H 0.0 **** 0.06
23103 H 52.888814374935464 100.58459865193768 99.83264531389153 H 0.0 **** 0.06
23104 H 51.455155221422274 100.00585831663162 100.71497474868421 H 0.0 **** 0.06
23105 H 52.98258735723374 99.09734610408236 100.80731488286578 H 0.0 **** 0.06
23106 C 115.51278565608709 31.58251998884279 61.27046864070485 C 0.0 **** -0.24
23107 H 115.38720823173225 32.6399048899967 61.033594961276606 H 0.0 **** 0.06
23108 H 116.27322931095892 31.15294843512754 60.61780615492273 H 0.0 **** 0.06
23109 H 114.56732180442143 31.0626532561692 61.11797863913853 H 0.0 **** 0.06
23110 H 115.82165571715868 31.477249982703057 62.30987712356216 H 0.0 **** 0.06
23111 C 60.69613229376628 42.074720936232325 71.53327086056163 C 0.0 **** -0.24
23112 H 59.708480271382484 42.456827458543984 71.27531808062449 H 0.0 **** 0.06
23113 H 61.03472662982915 41.38879592141481 70.75603835490477 H 0.0 **** 0.06
23114 H 60.645011085547594 41.54828662913502 72.48642410362311 H 0.0 **** 0.06
23115 H 61.397219876622046 42.905165592477175 71.61423632431246 H 0.0 **** 0.06
23116 C 11.259206117107457 114.48851259474338 102.89925827706796 C 0.0 **** -0.24
23117 H 10.852319125262714 114.19752262838597 103.8679013445424 H 0.0 **** 0.06
23118 H 12.146350237598497 113.89436662978993 102.68403900170543 H 0.0 **** 0.06
23119 H 11.52543261213886 115.5457831172269 102.91918579997161 H 0.0 **** 0.06
23120 H 10.510416036553636 114.3176959647259 102.12493552498933 H 0.0 **** 0.06
23121 C 52.105796659944986 13.130224262903909 45.914677584352035 C 0.0 **** -0.24
23122 H 51.6095744317214 12.604114394415262 46.73034999081983 H 0.0 **** 0.06
23123 H 53.11768945002342 13.39905323162344 46.21930944731389 H 0.0 **** 0.06
23124 H 51.54639627274497 14.033466785393927 45.671478702350555 H 0.0 **** 0.06
23125 H 52.14995225002622 12.482556584410077 45.03895363906844 H 0.0 **** 0.06
23126 C 78.80843528270822 9.596003807076897 99.34046334881862 C 0.0 **** -0.24
23127 H 77.87958468302887 9.280368475781387 98.86563449441712 H 0.0 **** 0.06
23128 H 78.59168906768674 10.35396586283369 100.09374895280894 H 0.0 **** 0.06
23129 H 79.47876302419668 10.012007739369722 98.5884886232418 H 0.0 **** 0.06
23130 H 79.28225109771411 8.73713702781005 99.8158789428951 H 0.0 **** 0.06
23131 C 93.45844248299922 76.4280737392678 18.00863513909762 C 0.0 **** -0.24
23132 H 93.3395659052012 75.36352966278429 18.211863719446853 H 0.0 **** 0.06
23133 H 92.72857011782932 76.99239266311434 18.58987784969794 H 0.0 **** 0.06
23134 H 93.29983741246797 76.61453190559581 16.9465799025444 H 0.0 **** 0.06
23135 H 94.4652071654936 76.74069526253169 18.286802794477552 H 0.0 **** 0.06
23136 C 86.64976815559093 55.40766328828 14.1236210013775 C 0.0 **** -0.24
23137 H 87.24109968973637 54.49282821792979 14.113167031879215 H 0.0 **** 0.06
23138 H 86.54409770373445 55.75980807625305 15.14943303174556 H 0.0 **** 0.06
23139 H 85.66344858553563 55.207743133721735 13.704796219772277 H 0.0 **** 0.06
23140 H 87.14978926533168 56.171014787561816 13.52729898666837 H 0.0 **** 0.06
23141 C 16.01048898916926 50.26960791626033 104.37073289593235 C 0.0 **** -0.24
23142 H 16.790062457466973 50.59490359895199 103.68077596596922 H 0.0 **** 0.06
23143 H 16.043859571531925 50.882602831285396 105.27135278593175 H 0.0 **** 0.06
23144 H 16.173512815640635 49.22439705433015 104.63429705002537 H 0.0 **** 0.06
23145 H 15.036668547002876 50.37707820499401 103.89403867386449 H 0.0 **** 0.06
23146 C 30.062580019361974 10.219646970279172 50.78960840853213 C 0.0 **** -0.24
23147 H 29.125275437656285 10.152626279878461 50.23705893929855 H 0.0 **** 0.06
23148 H 30.555983197863128 9.24740868430223 50.786201482471824 H 0.0 **** 0.06
23149 H 29.857123254650674 10.520485091187723 51.81728955517548 H 0.0 **** 0.06
23150 H 30.710617250983688 10.957653600789882 50.31817289534652 H 0.0 **** 0.06
23151 C 21.66673553090584 90.85083172298316 12.068006347322623 C 0.0 **** -0.24
23152 H 22.326209740210913 90.16068224015662 12.595039612348998 H 0.0 **** 0.06
23153 H 21.277414606902767 91.58836389404348 12.770482054909877 H 0.0 **** 0.06
23154 H 20.839870749024783 90.29683237596691 11.625341888479948 H 0.0 **** 0.06
23155 H 22.22752066358248 91.35752794096032 11.282345126751746 H 0.0 **** 0.06
23156 C 59.47222701405188 8.809747648422405 44.83260819667369 C 0.0 **** -0.24
23157 H 59.36310104955794 7.883925646276637 45.39674882919019 H 0.0 **** 0.06
23158 H 59.37627585463322 8.598832933873606 43.76676627417339 H 0.0 **** 0.06
23159 H 60.4525316349017 9.242880335217993 45.031244743016174 H 0.0 **** 0.06
23160 H 58.69682083347182 9.512822855560508 45.134843196074 H 0.0 **** 0.06
23161 C 52.696601158898055 63.96117487248989 21.06052243337227 C 0.0 **** -0.24
23162 H 53.73465322012898 63.628911290161284 21.089598602752773 H 0.0 **** 0.06
23163 H 52.565515053586374 64.67287774081615 20.244480093067565 H 0.0 **** 0.06
23164 H 52.441898023244434 64.44070825759059 22.005250201481573 H 0.0 **** 0.06
23165 H 52.045130638777096 63.100837636767096 20.902046417225407 H 0.0 **** 0.06
23166 C 5.9361469567490985 15.3715124830467 73.58276971911616 C 0.0 **** -0.24
23167 H 5.7610145296538064 14.301981919721726 73.6998447845601 H 0.0 **** 0.06
23168 H 5.412100760959731 15.730353712657404 72.69709591117038 H 0.0 **** 0.06
23169 H 7.004998939702347 15.55512256054692 73.47278635357742 H 0.0 **** 0.06
23170 H 5.564962690604489 15.897664306152024 74.46271466059096 H 0.0 **** 0.06
23171 C 34.71219900461159 4.630890627163211 28.84042551187258 C 0.0 **** -0.24
23172 H 35.54526620799882 5.111449996474619 29.35381260189206 H 0.0 **** 0.06
23173 H 35.08175802611143 4.107761619769491 27.958378612066156 H 0.0 **** 0.06
23174 H 33.98740068490733 5.386975321681746 28.537222722357512 H 0.0 **** 0.06
23175 H 34.234500430054766 3.9180281210771 29.511541446261674 H 0.0 **** 0.06
23176 C 15.920665620993816 70.21596544083212 103.56825573679521 C 0.0 **** -0.24
23177 H 16.712154790695962 70.8659351390856 103.1973355992111 H 0.0 **** 0.06
23178 H 15.958172874963282 69.26177703446774 103.04238382896523 H 0.0 **** 0.06
23179 H 14.952278675371787 70.6879835346495 103.39679348678305 H 0.0 **** 0.06
23180 H 16.058657455813602 70.04832592658835 104.63637501685128 H 0.0 **** 0.06
23181 C 10.981219734476895 77.53438076522703 75.47355559994577 C 0.0 **** -0.24
23182 H 10.167188393734108 78.14523912421917 75.08426707925548 H 0.0 **** 0.06
23183 H 11.797193052094087 77.51175113802141 74.75114850945835 H 0.0 **** 0.06
23184 H 10.621599490814162 76.5199853914241 75.64793706675664 H 0.0 **** 0.06
23185 H 11.33815512782462 77.95949129001472 76.41144669246796 H 0.0 **** 0.06
23186 C 25.16112570411599 101.6427558833527 92.32980519565996 C 0.0 **** -0.24
23187 H 25.52244759101049 100.67183466936672 91.99411646961084 H 0.0 **** 0.06
23188 H 25.895525406288016 102.40989836742085 92.08184126504347 H 0.0 **** 0.06
23189 H 25.009269639897184 101.62048856681221 93.40899955396054 H 0.0 **** 0.06
23190 H 24.216301707357303 101.86981818215214 91.83448412153822 H 0.0 **** 0.06
23191 C 73.28473088717251 21.429401244112825 19.25038513843241 C 0.0 **** -0.24
23192 H 72.78057195303876 20.596755831895024 19.741849269845215 H 0.0 **** 0.06
23193 H 73.22118256662398 22.31591702238414 19.881764554947168 H 0.0 **** 0.06
23194 H 72.8052270102863 21.628972109600056 18.292225945055083 H 0.0 **** 0.06
23195 H 74.33205333975577 21.17381108221329 19.08630905212448 H 0.0 **** 0.06
23196 C 111.23326773441266 113.07230320098783 9.428884591319854 C 0.0 **** -0.24
23197 H 111.31504919838 113.80131837470168 8.62329836568087 H 0.0 **** 0.06
23198 H 111.73545685957284 113.45552439801041 10.31751735348642 H 0.0 **** 0.06
23199 H 111.70111209907797 112.13654594256563 9.121753348414604 H 0.0 **** 0.06
23200 H 110.18145278061974 112.89582408867378 9.652969297697418 H 0.0 **** 0.06
23201 C 78.64616999015718 63.261988144505665 8.244933604163734 C 0.0 **** -0.24
23202 H 78.04387679989071 64.11095405665264 8.568047107024356 H 0.0 **** 0.06
23203 H 78.4540440783712 63.06056756928004 7.190714469861092 H 0.0 **** 0.06
23204 H 78.38438742062266 62.384737643406595 8.835999558237916 H 0.0 **** 0.06
23205 H 79.70237166174388 63.49169330868327 8.384973281531629 H 0.0 **** 0.06
23206 C 35.88270899024616 99.81181852428428 48.541519011618846 C 0.0 **** -0.24
23207 H 36.57528066912087 99.15593930775444 49.069230570158936 H 0.0 **** 0.06
23208 H 36.19757039652205 99.91368352394996 47.50292603274846 H 0.0 **** 0.06
23209 H 35.8769934553016 100.79236516387687 49.01773764308069 H 0.0 **** 0.06
23210 H 34.880073880190594 99.38539246506713 48.576564981369046 H 0.0 **** 0.06
23211 C 86.9544865423963 55.21744701046582 64.80066495204369 C 0.0 **** -0.24
23212 H 86.44944551855593 56.183948616663855 64.81070642865205 H 0.0 **** 0.06
23213 H 87.23840428649811 54.968148614337366 63.777904169661156 H 0.0 **** 0.06
23214 H 86.28194834784148 54.452543978505986 65.18787192232071 H 0.0 **** 0.06
23215 H 87.84688631046299 55.26725539223854 65.42418664914044 H 0.0 **** 0.06
23216 C 57.64990862930813 95.18078120078457 2.1145061407126775 C 0.0 **** -0.24
23217 H 57.91375182175693 94.2061638870282 1.7050853795773406 H 0.0 **** 0.06
23218 H 57.71496055977332 95.93491742071285 1.3297995731102645 H 0.0 **** 0.06
23219 H 58.33953278818882 95.43399209246178 2.9208437988233413 H 0.0 **** 0.06
23220 H 56.632082315837465 95.14875054275251 2.503721002205438 H 0.0 **** 0.06
23221 C 37.975356830716464 37.94363163130839 22.913875643776493 C 0.0 **** -0.24
23222 H 36.91204825692881 37.855834006056995 22.688141119305925 H 0.0 **** 0.06
23223 H 38.26727254066623 38.99327619007818 22.882315149240583 H 0.0 **** 0.06
23224 H 38.549499907760406 37.38421237646381 22.17559632495798 H 0.0 **** 0.06
23225 H 38.170173295047334 37.541303032404315 23.907697943716812 H 0.0 **** 0.06
23226 C 45.09288095644962 61.05100462532681 0.3340432139559084 C 0.0 **** -0.24
23227 H 44.12004699610594 61.03032118125901 -0.15670194391088899 H 0.0 **** 0.06
23228 H 45.37902143230187 62.08521180698193 0.5282872603166595 H 0.0 **** 0.06
23229 H 45.83522009546908 60.58401586563093 -0.3124253438851099 H 0.0 **** 0.06
23230 H 45.036189716999246 60.506289873296055 1.2757503972009658 H 0.0 **** 0.06
23231 C 78.60614207322811 102.46201831395655 113.45381051462937 C 0.0 **** -0.24
23232 H 79.27793494739785 102.78891578178086 112.66064855970704 H 0.0 **** 0.06
23233 H 79.14236257077528 102.45385567744623 114.40331805216455 H 0.0 **** 0.06
23234 H 78.24327090471542 101.45780372324462 113.23232871839417 H 0.0 **** 0.06
23235 H 77.76099987002362 103.14749807335426 113.51894672825165 H 0.0 **** 0.06
23236 C 93.84961708019841 5.459414941263617 36.53539135046789 C 0.0 **** -0.24
23237 H 94.77521762395143 5.291407025916925 37.086830904461166 H 0.0 **** 0.06
23238 H 93.82933010399607 4.815343294118236 35.656065628092755 H 0.0 **** 0.06
23239 H 93.79733799656236 6.50284845095976 36.224606922383146 H 0.0 **** 0.06
23240 H 92.99893395771593 5.227552254374615 37.17554947449569 H 0.0 **** 0.06
23241 C 46.07584201347768 17.352809366126053 6.142608445039343 C 0.0 **** -0.24
23242 H 45.82737813371347 17.22683123417599 7.19608636416001 H 0.0 **** 0.06
23243 H 45.210971376639634 17.08983495085272 5.531588863527645 H 0.0 **** 0.06
23244 H 46.913198221286166 16.704043187894257 5.886449202841504 H 0.0 **** 0.06
23245 H 46.34974474447739 18.391738480011185 5.955832612970568 H 0.0 **** 0.06
23246 C 29.979482852486797 90.60340638851653 55.94979814184044 C 0.0 **** -0.24
23247 H 28.952205893556595 90.24544843616184 55.87222375997602 H 0.0 **** 0.06
23248 H 30.555593482332824 90.23894233329628 55.09938998157931 H 0.0 **** 0.06
23249 H 30.422694014325685 90.23475922194189 56.87470444459471 H 0.0 **** 0.06
23250 H 29.985158900422448 91.69363247090956 55.95318284941913 H 0.0 **** 0.06
23251 C 22.501991529775893 24.675884929254906 51.62504386549375 C 0.0 **** -0.24
23252 H 21.75053323756336 24.198446400520986 52.2544407822794 H 0.0 **** 0.06
23253 H 23.01588236069648 23.917904867095576 51.034100570424584 H 0.0 **** 0.06
23254 H 23.22248177967424 25.19888615573877 52.25349914793645 H 0.0 **** 0.06
23255 H 22.01618874485007 25.389076655256368 50.95780862242617 H 0.0 **** 0.06
23256 C 29.9451829105208 67.58466109838082 51.10341002157196 C 0.0 **** -0.24
23257 H 30.070861405201867 68.63540081958797 51.36620377011275 H 0.0 **** 0.06
23258 H 30.674653515679324 67.3119706259368 50.33986619488138 H 0.0 **** 0.06
23259 H 28.9383577821921 67.42504832076685 50.71785009004742 H 0.0 **** 0.06
23260 H 30.097791890605237 66.96807830969846 51.98888711651921 H 0.0 **** 0.06
23261 C 37.496058980180884 98.4710569817837 59.70958928323604 C 0.0 **** -0.24
23262 H 37.864842173666055 98.66132996004933 60.71820059768102 H 0.0 **** 0.06
23263 H 36.570536464402416 99.0241849018957 59.55069588150657 H 0.0 **** 0.06
23264 H 37.30822768642257 97.4048584998713 59.58751679860232 H 0.0 **** 0.06
23265 H 38.24214054015526 98.7941493107914 58.98356572379238 H 0.0 **** 0.06
23266 C 16.40948392257488 84.36103296713814 108.82446220374945 C 0.0 **** -0.24
23267 H 16.988541345766834 83.78717897068437 109.54861115044037 H 0.0 **** 0.06
23268 H 15.510377481198077 84.74979553746941 109.3041213643559 H 0.0 **** 0.06
23269 H 16.128881404077987 83.71597779872566 107.9912979574658 H 0.0 **** 0.06
23270 H 17.012092151604236 85.19089095027807 108.45486157944367 H 0.0 **** 0.06
23271 C 101.98200858931108 92.03101855644016 45.861515437109446 C 0.0 **** -0.24
23272 H 101.09247104123531 92.57380468326699 45.54223701650062 H 0.0 **** 0.06
23273 H 102.41643810185187 91.51069669103578 45.007078318230214 H 0.0 **** 0.06
23274 H 101.70893355274055 91.30514368993352 46.628147890451 H 0.0 **** 0.06
23275 H 102.7093460506432 92.73268868609063 46.26910440380765 H 0.0 **** 0.06
23276 C 29.73739389842018 72.24717298652735 46.79016185627495 C 0.0 **** -0.24
23277 H 29.77925375931602 71.19773205997114 46.497639927462956 H 0.0 **** 0.06
23278 H 29.91189177026365 72.33236058330175 47.86286644618343 H 0.0 **** 0.06
23279 H 28.754657770292283 72.65207480435396 46.54720134284429 H 0.0 **** 0.06
23280 H 30.503302341974916 72.80461702107522 46.25147648737203 H 0.0 **** 0.06
23281 C 20.998437944153338 99.79021077388163 92.65422965461119 C 0.0 **** -0.24
23282 H 21.080215249761928 98.97858906320698 91.93155669898982 H 0.0 **** 0.06
23283 H 20.64353394495963 99.39332149109694 93.60596211135885 H 0.0 **** 0.06
23284 H 20.2939847782671 100.53544595687708 92.28534242147688 H 0.0 **** 0.06
23285 H 21.97587685977354 100.2523113240988 92.7948313452143 H 0.0 **** 0.06
23286 C 102.34677837643471 16.79240384462952 52.596094078994135 C 0.0 **** -0.24
23287 H 101.73679943035978 16.392198076573948 51.78626349144429 H 0.0 **** 0.06
23288 H 102.01957988467092 17.805370155673245 52.830881140304946 H 0.0 **** 0.06
23289 H 103.39225527743935 16.809366595169962 52.28904222738232 H 0.0 **** 0.06
23290 H 102.23632138167721 16.161652716667163 53.47872700217408 H 0.0 **** 0.06
23291 C 69.64769334436843 21.467852124399514 64.86483168145314 C 0.0 **** -0.24
23292 H 69.88346419900654 22.29419333328329 64.19469450808569 H 0.0 **** 0.06
23293 H 69.6286084755425 21.8298322005451 65.89342383576366 H 0.0 **** 0.06
23294 H 70.40615894107236 20.692266368043164 64.76614460742887 H 0.0 **** 0.06
23295 H 68.67208596696844 21.05729204138194 64.60530866539908 H 0.0 **** 0.06
23296 C 65.22075249372602 77.3225463718039 60.99009123264679 C 0.0 **** -0.24
23297 H 64.44050795133548 76.83791644153843 60.40299766972046 H 0.0 **** 0.06
23298 H 65.07787856215543 77.08949626529846 62.04505105027897 H 0.0 **** 0.06
23299 H 65.16662185839701 78.40154296973392 60.84543726861429 H 0.0 **** 0.06
23300 H 66.19582962613833 76.96058114716121 60.66595045217872 H 0.0 **** 0.06
23301 C 45.3932571946854 103.69127136611719 40.58942448782739 C 0.0 **** -0.24
23302 H 45.40292005536772 103.80377320263233 39.50501563799958 H 0.0 **** 0.06
23303 H 46.310850965681965 104.10773099915745 41.00515469831279 H 0.0 **** 0.06
23304 H 45.32480905358465 102.63378819751895 40.84386845261042 H 0.0 **** 0.06
23305 H 44.53393886513069 104.22026177607486 41.0004155533199 H 0.0 **** 0.06
23306 C 30.804627071770774 1.80709837085152 42.277453982703115 C 0.0 **** -0.24
23307 H 30.064069095070273 1.0079076221355336 42.31650031345435 H 0.0 **** 0.06
23308 H 31.026075788138556 2.0457431944563638 41.23686630799908 H 0.0 **** 0.06
23309 H 31.71588376207285 1.4822192493161026 42.77899991250814 H 0.0 **** 0.06
23310 H 30.41039295134783 2.6918425713915184 42.7778765453509 H 0.0 **** 0.06
23311 C 106.04025031081365 63.431032519700636 61.06341741412106 C 0.0 **** -0.24
23312 H 106.8642492713696 62.72009903191207 61.01215551788772 H 0.0 **** 0.06
23313 H 105.42349428374794 63.2095935879139 61.93487389596241 H 0.0 **** 0.06
23314 H 105.4356800782825 63.35193060369642 60.160474882117455 H 0.0 **** 0.06
23315 H 106.4378349365376 64.44318598039155 61.14685284064227 H 0.0 **** 0.06
23316 C 22.23079404128248 7.764450609836274 72.23359940637681 C 0.0 **** -0.24
23317 H 23.083223552945327 8.422127683669316 72.06244050576947 H 0.0 **** 0.06
23318 H 21.511897768629638 8.263328483197483 72.88515576692748 H 0.0 **** 0.06
23319 H 22.571787902965355 6.843283072852998 72.70719434617843 H 0.0 **** 0.06
23320 H 21.756039439861638 7.528998548284051 71.2818305956076 H 0.0 **** 0.06
23321 C 25.96301233289512 4.680076728127551 49.59541684155954 C 0.0 **** -0.24
23322 H 25.820397864102716 3.6490836071415256 49.27104070985811 H 0.0 **** 0.06
23323 H 24.99556807302477 5.178538992608315 49.655778472154736 H 0.0 **** 0.06
23324 H 26.59739784488744 5.201286848889607 48.877965360034864 H 0.0 **** 0.06
23325 H 26.4390505298484 4.688871048521847 50.57501612027693 H 0.0 **** 0.06
23326 C 24.807928462536893 95.57774364688814 20.299743932965214 C 0.0 **** -0.24
23327 H 24.773024526293568 95.22419045410757 19.269605413398608 H 0.0 **** 0.06
23328 H 23.839534745145215 95.99602041341736 20.572433595239943 H 0.0 **** 0.06
23329 H 25.575407512711706 96.34520246117094 20.39376711766485 H 0.0 **** 0.06
23330 H 25.04441169179097 94.7443440020834 20.96141551239802 H 0.0 **** 0.06
23331 C 81.21187144378717 67.16611903571487 96.64816614592822 C 0.0 **** -0.24
23332 H 81.95020616359486 67.27477593766775 95.85338623758001 H 0.0 **** 0.06
23333 H 80.38395894408167 67.85240038490892 96.47171126296357 H 0.0 **** 0.06
23334 H 81.67562868243704 67.3936877562191 97.60729136192008 H 0.0 **** 0.06
23335 H 80.83868444285197 66.14131752584522 96.65749167421079 H 0.0 **** 0.06
23336 C 14.397123721546336 54.552178897607774 24.252494043425543 C 0.0 **** -0.24
23337 H 14.881129417095337 53.6923697498286 23.79083595753923 H 0.0 **** 0.06
23338 H 14.932780673918387 55.46111440083365 23.980096561014165 H 0.0 **** 0.06
23339 H 14.407060611324994 54.434298354123996 25.336698391745543 H 0.0 **** 0.06
23340 H 13.365745119247777 54.61854692475907 23.90438043037102 H 0.0 **** 0.06
23341 C 77.63022619770692 24.813738864490915 110.32804216259296 C 0.0 **** -0.24
23342 H 76.85426907361 24.624723894344186 109.58654003064771 H 0.0 **** 0.06
23343 H 77.59135066834165 25.85965140610739 110.63441492772267 H 0.0 **** 0.06
23344 H 78.60671843906306 24.598159452494684 109.89435912942503 H 0.0 **** 0.06
23345 H 77.46776671810477 24.173559602397034 111.19419681959158 H 0.0 **** 0.06
23346 C 50.025477269024975 72.49905606013431 61.79871278681156 C 0.0 **** -0.24
23347 H 50.145487169159594 73.0489864016048 60.865068946221754 H 0.0 **** 0.06
23348 H 49.81526197171462 71.45220382823277 61.579232727328645 H 0.0 **** 0.06
23349 H 49.19969524041551 72.92522015059183 62.367177986036836 H 0.0 **** 0.06
23350 H 50.94415934781071 72.57087920523486 62.38259405809637 H 0.0 **** 0.06
23351 C 39.59228941325108 35.88497602947935 32.628385902801284 C 0.0 **** -0.24
23352 H 39.12389804015437 35.467270714837944 33.52020954526769 H 0.0 **** 0.06
23353 H 39.0212427614193 36.74797369987163 32.288673977941556 H 0.0 **** 0.06
23354 H 39.61235979770038 35.12948428350883 31.841924812903002 H 0.0 **** 0.06
23355 H 40.61186253125399 36.19148997877396 32.86334854521472 H 0.0 **** 0.06
23356 C 36.0992175019328 107.01775048823987 13.980559341540442 C 0.0 **** -0.24
23357 H 35.94651762334121 107.06217904577485 12.902818495436833 H 0.0 **** 0.06
23358 H 37.16568884835141 106.93849555027799 14.19377785195664 H 0.0 **** 0.06
23359 H 35.581625954840774 106.14701603981814 14.384844075059647 H 0.0 **** 0.06
23360 H 35.70251017353496 107.92255485952941 14.441183815755323 H 0.0 **** 0.06
23361 C 62.32756449546923 59.79354547934187 37.518632113188424 C 0.0 **** -0.24
23362 H 63.023862390590466 58.98483301586421 37.74304247296006 H 0.0 **** 0.06
23363 H 61.8438525358261 59.600246065937355 36.56064375898526 H 0.0 **** 0.06
23364 H 62.87074132787171 60.737235328932925 37.46841308017239 H 0.0 **** 0.06
23365 H 61.57264981252359 59.849577270285906 38.30223963973954 H 0.0 **** 0.06
23366 C 1.1347888312321857 23.18518243721447 55.20118442764726 C 0.0 **** -0.24
23367 H 0.5876145775244481 22.445485561530344 54.61543489883124 H 0.0 **** 0.06
23368 H 0.6929115829578052 24.16955946523351 55.04616207860013 H 0.0 **** 0.06
23369 H 2.1776519744094287 23.200082543349403 54.88494877527498 H 0.0 **** 0.06
23370 H 1.0797753805208856 22.923476994227784 56.25799299600533 H 0.0 **** 0.06
23371 C 95.42300240856952 40.55892703209514 94.1948038444645 C 0.0 **** -0.24
23372 H 95.71061246316219 40.59267715752078 95.24566441718656 H 0.0 **** 0.06
23373 H 94.81281003545257 39.673825494745856 94.01396659780357 H 0.0 **** 0.06
23374 H 96.318169179839 40.51663237598618 93.57463116977553 H 0.0 **** 0.06
23375 H 94.85058339193628 41.45218228481801 93.94630226981764 H 0.0 **** 0.06
23376 C 37.752133525414536 69.38465506492871 2.5120304369673647 C 0.0 **** -0.24
23377 H 37.257098557696395 68.54005381977134 2.032493486818524 H 0.0 **** 0.06
23378 H 37.30273670937663 69.56289056362887 3.488507325275336 H 0.0 **** 0.06
23379 H 37.63578625008881 70.27286417729776 1.890885165646722 H 0.0 **** 0.06
23380 H 38.812782104495994 69.16349277001684 2.6333169297733576 H 0.0 **** 0.06
23381 C 35.8039669435139 87.34290714357304 91.36724747995922 C 0.0 **** -0.24
23382 H 35.56751689911977 87.77766633403758 92.33801487335477 H 0.0 **** 0.06
23383 H 35.396575417850215 86.33238188586968 91.31335395258138 H 0.0 **** 0.06
23384 H 36.88602456221787 87.30522149446038 91.24084469527756 H 0.0 **** 0.06
23385 H 35.366268570496246 87.95420826788774 90.57880308991511 H 0.0 **** 0.06
23386 C 90.59241038618086 32.16344329031506 37.50415866436241 C 0.0 **** -0.24
23387 H 89.76660117104467 31.71237336404718 38.054688989623045 H 0.0 **** 0.06
23388 H 90.64599894129753 31.725518227698537 36.50761341174038 H 0.0 **** 0.06
23389 H 91.52662522290751 31.978936146241324 38.034224026202764 H 0.0 **** 0.06
23390 H 90.42748585163048 33.23847518235493 37.42037927516985 H 0.0 **** 0.06
23391 C 49.9758143827076 45.799602378606444 77.52635411301064 C 0.0 **** -0.24
23392 H 50.636970681847856 46.44820719143851 76.95359624800714 H 0.0 **** 0.06
23393 H 50.541434551619034 45.31724917429983 78.3239673045574 H 0.0 **** 0.06
23394 H 49.553777833654976 45.038827009568614 76.86929431910126 H 0.0 **** 0.06
23395 H 49.16986422698653 46.39330624470167 77.95948770405384 H 0.0 **** 0.06
23396 C 1.2679941429270496 105.86252183799255 107.28590851398604 C 0.0 **** -0.24
23397 H 1.3430846649931816 106.12543130020254 106.23107272366019 H 0.0 **** 0.06
23398 H 2.224253562566785 106.0495398768299 107.7750105069704 H 0.0 **** 0.06
23399 H 1.0112220199966355 104.80814189958845 107.38035156181166 H 0.0 **** 0.06
23400 H 0.49438659421658393 106.46894269843925 107.75677011218767 H 0.0 **** 0.06
23401 C 90.32724676887547 88.16457881952402 34.546233426706294 C 0.0 **** -0.24
23402 H 90.12416955311586 88.23506754394293 33.477087690456756 H 0.0 **** 0.06
23403 H 90.03828104070152 89.09724015230995 35.03212876231004 H 0.0 **** 0.06
23404 H 91.39076454892196 87.98632787609986 34.703214482242345 H 0.0 **** 0.06
23405 H 89.75378748039394 87.33984816122071 34.97004632312519 H 0.0 **** 0.06
23406 C 77.17735523077778 99.21443276892558 98.63759129936157 C 0.0 **** -0.24
23407 H 76.54224876417524 98.71668796800023 97.9047124211491 H 0.0 **** 0.06
23408 H 77.86550465034907 98.49018832425672 99.07338128156337 H 0.0 **** 0.06
23409 H 76.55604327510844 99.64543248405612 99.42225824698275 H 0.0 **** 0.06
23410 H 77.7446867844659 100.0063720405521 98.14795910018037 H 0.0 **** 0.06
23411 C 1.5842612465856405 79.26572750251296 36.08795017219629 C 0.0 **** -0.24
23412 H 0.5715811383782494 79.33852403839614 35.69199412861548 H 0.0 **** 0.06
23413 H 2.185776294782869 80.08707685761829 35.6983729094504 H 0.0 **** 0.06
23414 H 2.026021927925825 78.31632872505492 35.78588727144046 H 0.0 **** 0.06
23415 H 1.5531312189276463 79.32161636651736 37.17610315509876 H 0.0 **** 0.06
23416 C 46.64562804985458 38.61706807215828 61.50891766425323 C 0.0 **** -0.24
23417 H 47.03864528199517 39.531422431512716 61.95284117667276 H 0.0 **** 0.06
23418 H 45.942736619317785 38.870114601999724 60.71533425266054 H 0.0 **** 0.06
23419 H 46.13509433488127 38.03237887252128 62.27406563137487 H 0.0 **** 0.06
23420 H 47.467111045534295 38.03241792640096 61.09372433331052 H 0.0 **** 0.06
23421 C 86.01994727822176 16.530503306059472 10.165639520612501 C 0.0 **** -0.24
23422 H 85.37351640655265 17.201478121840836 9.599515412466047 H 0.0 **** 0.06
23423 H 86.53320072851028 15.856159262873291 9.479934353658038 H 0.0 **** 0.06
23424 H 85.41600852592961 15.949666919131772 10.863927227164183 H 0.0 **** 0.06
23425 H 86.7541286493173 17.115304413006385 10.719362291089368 H 0.0 **** 0.06
23426 C 67.42115415378295 94.20127476789635 8.402753914577062 C 0.0 **** -0.24
23427 H 67.75683592503646 94.83536162311076 7.5810336039143635 H 0.0 **** 0.06
23428 H 67.49412787360367 94.75399024948715 9.339666405922173 H 0.0 **** 0.06
23429 H 68.0490824568517 93.31186362982682 8.455255608018632 H 0.0 **** 0.06
23430 H 66.38596624011889 93.90684197840865 8.233243414878245 H 0.0 **** 0.06
23431 C 2.096595147231909 90.47612019756346 36.71695417336639 C 0.0 **** -0.24
23432 H 2.5567633375127627 89.93758387025811 35.88852046232353 H 0.0 **** 0.06
23433 H 1.0134935382972117 90.35423084616833 36.67260838520281 H 0.0 **** 0.06
23434 H 2.3466971943179544 91.53426640281513 36.645805862871214 H 0.0 **** 0.06
23435 H 2.4687827890781477 90.07728560847798 37.66029496480712 H 0.0 **** 0.06
23436 C 90.46105417003031 7.028477220228353 57.2491549010434 C 0.0 **** -0.24
23437 H 90.95967882605885 7.483662372438175 58.1040656587047 H 0.0 **** 0.06
23438 H 91.20952954214209 6.671247575313771 56.540853953151085 H 0.0 **** 0.06
23439 H 89.82535200392198 7.769431083248435 56.76269135852438 H 0.0 **** 0.06
23440 H 89.85071377922037 6.191718990422828 57.5869458885977 H 0.0 **** 0.06
23441 C 19.22451811987665 16.01311319112017 5.785308662980242 C 0.0 **** -0.24
23442 H 20.25421237381326 15.660877304460882 5.849466264401883 H 0.0 **** 0.06
23443 H 19.200617527881434 17.09270504707297 5.935077699041756 H 0.0 **** 0.06
23444 H 18.626388064951186 15.525799936799615 6.5540470288000705 H 0.0 **** 0.06
23445 H 18.820051794673077 15.773286752194508 4.801788534442352 H 0.0 **** 0.06
23446 C 96.83204887489353 9.121858272249767 77.05289019365335 C 0.0 **** -0.24
23447 H 97.78947284582921 8.80499333532228 76.6382426848096 H 0.0 **** 0.06
23448 H 96.87372602932447 9.076638972639728 78.14091719443002 H 0.0 **** 0.06
23449 H 96.04409666038799 8.4620005041009 76.6907969083943 H 0.0 **** 0.06
23450 H 96.62267790426483 10.14493283502793 76.73904334913357 H 0.0 **** 0.06
23451 C 1.2954148665655367 8.65696949878442 44.05785702525847 C 0.0 **** -0.24
23452 H 1.0003441118606844 9.545125894980217 43.49899297534586 H 0.0 **** 0.06
23453 H 1.6217700280649439 7.882451715440027 43.364024157646014 H 0.0 **** 0.06
23454 H 0.445836256212516 8.292963878058629 44.63587662995914 H 0.0 **** 0.06
23455 H 2.11309654683987 8.907796600188973 44.73372313701219 H 0.0 **** 0.06
23456 C 67.97739733342685 61.50463652847478 42.23970904400778 C 0.0 **** -0.24
23457 H 68.57281457875803 60.62313563576552 42.478252656495954 H 0.0 **** 0.06
23458 H 68.47963890876834 62.39495984873571 42.6180466408689 H 0.0 **** 0.06
23459 H 66.99557169692956 61.416013305218186 42.70574117831234 H 0.0 **** 0.06
23460 H 67.86073842377769 61.58298101898757 41.15965891150756 H 0.0 **** 0.06
23461 C 83.17979009770454 67.67038857071262 48.22103073564864 C 0.0 **** -0.24
23462 H 83.61911322098672 67.59452060839956 47.22529587043476 H 0.0 **** 0.06
23463 H 82.38190904641746 66.9342214040597 48.322062030095424 H 0.0 **** 0.06
23464 H 82.77185938128673 68.67085567015629 48.36138602530775 H 0.0 **** 0.06
23465 H 83.94637521883087 67.48120611745411 48.97132581623157 H 0.0 **** 0.06
23466 C 89.41750367548491 43.6358173127459 80.08225662821917 C 0.0 **** -0.24
23467 H 88.79811402670938 43.56628793502685 79.18789054104911 H 0.0 **** 0.06
23468 H 88.85059888328323 44.1166714438387 80.87948044811964 H 0.0 **** 0.06
23469 H 90.30765718509349 44.22538165747633 79.86214941758999 H 0.0 **** 0.06
23470 H 89.71272469351447 42.63521139245154 80.39775288131045 H 0.0 **** 0.06
23471 C 94.86141826332573 45.20950814720531 47.352405148454636 C 0.0 **** -0.24
23472 H 94.27958463028875 45.43464690603294 46.45851772522852 H 0.0 **** 0.06
23473 H 94.1950399899626 44.86034650149235 48.141462005399774 H 0.0 **** 0.06
23474 H 95.37845523323801 46.10938130516439 47.685709259536964 H 0.0 **** 0.06
23475 H 95.5925931998135 44.43365787613145 47.12393160365332 H 0.0 **** 0.06
23476 C 34.78681377303588 89.6578875151148 28.384539738263868 C 0.0 **** -0.24
23477 H 34.859179114310386 88.80311843725883 29.056904688199836 H 0.0 **** 0.06
23478 H 35.7644339754183 89.85754669884898 27.944890389889053 H 0.0 **** 0.06
23479 H 34.45316748688708 90.53193874519633 28.943111229411613 H 0.0 **** 0.06
23480 H 34.070928422543574 89.43789394306862 27.59242386249315 H 0.0 **** 0.06
23481 C 42.2340914648629 46.36048174026513 82.37156511555088 C 0.0 **** -0.24
23482 H 42.91616729702044 46.47960428136295 81.52909850251581 H 0.0 **** 0.06
23483 H 41.634422099690696 47.26464438621622 82.48382912602591 H 0.0 **** 0.06
23484 H 42.8073239928099 46.18941072233676 83.28221745075564 H 0.0 **** 0.06
23485 H 41.57753025779174 45.5098837286462 82.18876207216164 H 0.0 **** 0.06
23486 C 25.231537232764254 40.82035779394503 98.46413860338353 C 0.0 **** -0.24
23487 H 24.894812837041798 41.747615398646396 98.9271197456348 H 0.0 **** 0.06
23488 H 24.4353563778447 40.4177836724209 97.83667006461927 H 0.0 **** 0.06
23489 H 25.483573908516064 40.096967474387064 99.2396961610928 H 0.0 **** 0.06
23490 H 26.111356263505627 41.01821810972058 97.85264185847004 H 0.0 **** 0.06
23491 C 91.10889952975515 80.52537581928271 76.58080289821766 C 0.0 **** -0.24
23492 H 91.87076400767023 80.8485548485558 77.29024732284559 H 0.0 **** 0.06
23493 H 91.58990133617726 80.08950081882489 75.70512327423884 H 0.0 **** 0.06
23494 H 90.50845553920351 81.38329040334452 76.27735905711101 H 0.0 **** 0.06
23495 H 90.46631816775476 79.78114792224028 77.05147857961454 H 0.0 **** 0.06
23496 C 30.747877514734483 25.745089500524273 87.82652919754679 C 0.0 **** -0.24
23497 H 30.04513687352207 26.44055896561909 87.36802036607321 H 0.0 **** 0.06
23498 H 30.527189707537076 24.73166795739624 87.49028931214755 H 0.0 **** 0.06
23499 H 30.653493967340694 25.796456222832035 88.91117049943165 H 0.0 **** 0.06
23500 H 31.76397422104975 26.011564841551348 87.53642248798195 H 0.0 **** 0.06
23501 C 113.42858337206238 99.94297362382633 28.254892197245 C 0.0 **** -0.24
23502 H 112.93609774348374 99.39715713164799 29.059521804182054 H 0.0 **** 0.06
23503 H 113.45398915920796 99.32365822975703 27.357941486363643 H 0.0 **** 0.06
23504 H 114.44642060052325 100.19190404416472 28.55445613581645 H 0.0 **** 0.06
23505 H 112.87729989804004 100.85997670604263 28.04736528405016 H 0.0 **** 0.06
23506 C 6.429033198237221 25.146980786352003 55.44619916972339 C 0.0 **** -0.24
23507 H 6.695707200679749 25.0443182033664 54.39454195457802 H 0.0 **** 0.06
23508 H 5.873278588253498 26.073961576534487 55.5912958450562 H 0.0 **** 0.06
23509 H 7.336504163521965 25.16825548890222 56.05088129553886 H 0.0 **** 0.06
23510 H 5.811264443821926 24.301410346893704 55.74886062985614 H 0.0 **** 0.06
23511 C 73.41559418794353 100.9533976547379 69.95922503264046 C 0.0 **** -0.24
23512 H 72.688136799679 100.39201083232797 69.37274472629662 H 0.0 **** 0.06
23513 H 73.01004362030426 101.14803426239672 70.95238862328102 H 0.0 **** 0.06
23514 H 73.63043689435453 101.89954210961918 69.46276776371528 H 0.0 **** 0.06
23515 H 74.33392551630439 100.37307563766132 70.04933323966355 H 0.0 **** 0.06
23516 C 40.51569381979656 16.528021604019614 91.57352535625796 C 0.0 **** -0.24
23517 H 39.46458600606589 16.631718786124225 91.30212366664998 H 0.0 **** 0.06
23518 H 40.634340272310865 16.708328554589627 92.64207296534155 H 0.0 **** 0.06
23519 H 41.10841996623844 17.25224508515612 91.01390971182825 H 0.0 **** 0.06
23520 H 40.854332246447406 15.519807681952614 91.3346545444036 H 0.0 **** 0.06
23521 C 32.67465217169013 83.17128933103652 42.0407484032647 C 0.0 **** -0.24
23522 H 31.69335401585115 83.5386115362283 41.741874132722444 H 0.0 **** 0.06
23523 H 32.71656579815973 82.09103779845242 41.900158755569436 H 0.0 **** 0.06
23524 H 32.84647033443409 83.40876247810985 43.09020232320577 H 0.0 **** 0.06
23525 H 33.441886375730554 83.64772552714379 41.42979437314054 H 0.0 **** 0.06
23526 C 110.87434865351844 94.05594836717205 58.50619622530587 C 0.0 **** -0.24
23527 H 110.85292537387089 93.69413325615366 59.534638482920855 H 0.0 **** 0.06
23528 H 109.97880921746838 94.64634354958599 58.310831856592756 H 0.0 **** 0.06
23529 H 110.90663967105624 93.20698828238034 57.82305594770642 H 0.0 **** 0.06
23530 H 111.75830915221948 94.6758054051713 58.357748869904356 H 0.0 **** 0.06
23531 C 41.34721329217976 66.96616048267316 79.1755961803573 C 0.0 **** -0.24
23532 H 41.155595098116436 68.01338981578323 78.94190890894379 H 0.0 **** 0.06
23533 H 40.623310138730176 66.34014826493058 78.65457560374529 H 0.0 **** 0.06
23534 H 41.25581651538616 66.81193673231388 80.25056324721845 H 0.0 **** 0.06
23535 H 42.35442614164725 66.70229970160682 78.85501974936983 H 0.0 **** 0.06
23536 C 63.556381663225636 101.67340639809427 26.62296181803154 C 0.0 **** -0.24
23537 H 63.88397270710493 100.68770267970295 26.956239404486553 H 0.0 **** 0.06
23538 H 62.489531777506784 101.78442264056508 26.81593655301799 H 0.0 **** 0.06
23539 H 63.746691998354265 101.77590650419118 25.55520426764963 H 0.0 **** 0.06
23540 H 64.10680700018747 102.44157722985283 27.166106433590272 H 0.0 **** 0.06
23541 C 25.144889245753347 108.73955524992053 66.25704217781642 C 0.0 **** -0.24
23542 H 24.887670223328428 109.79822039252514 66.29258158992035 H 0.0 **** 0.06
23543 H 24.716359435817083 108.23228719762173 67.12268587129324 H 0.0 **** 0.06
23544 H 26.229333183960648 108.62830845781471 66.27111620087007 H 0.0 **** 0.06
23545 H 24.74621526956514 108.29885902318662 65.34308951432062 H 0.0 **** 0.06
23546 C 61.5261581701957 23.391164981002078 39.93088535018609 C 0.0 **** -0.24
23547 H 62.092645943095405 23.989086925362557 40.643987333963025 H 0.0 **** 0.06
23548 H 61.02837345575941 22.574817620082115 40.455701514385396 H 0.0 **** 0.06
23549 H 62.20444093101305 22.98142817240918 39.18166050697249 H 0.0 **** 0.06
23550 H 60.78011887001435 24.018335881027866 39.442540599310064 H 0.0 **** 0.06
23551 C 98.17525270239372 6.093296484383117 109.61614916403401 C 0.0 **** -0.24
23552 H 99.23952158014907 6.3283837263478375 109.60261034977079 H 0.0 **** 0.06
23553 H 98.04088110399937 5.029160728432629 109.8084298998084 H 0.0 **** 0.06
23554 H 97.73518540731209 6.3484746870281015 108.65186163193296 H 0.0 **** 0.06
23555 H 97.68633354643634 6.670186337040775 110.40192570886677 H 0.0 **** 0.06
23556 C 96.69026950767602 15.075796990307566 3.4481320226647814 C 0.0 **** -0.24
23557 H 97.10574275024749 16.037286467151034 3.7513094881751137 H 0.0 **** 0.06
23558 H 97.36016576791675 14.601829481324074 2.729478103486082 H 0.0 **** 0.06
23559 H 95.71394554506124 15.23083332755462 2.989813615129318 H 0.0 **** 0.06
23560 H 96.58389159116838 14.434458879148309 4.324023464367432 H 0.0 **** 0.06
23561 C 92.28948440693433 30.26828800987613 104.15916835042809 C 0.0 **** -0.24
23562 H 93.23855029410662 29.746769438839806 104.28426787281826 H 0.0 **** 0.06
23563 H 91.69931003015819 30.17123949783968 105.07115652023275 H 0.0 **** 0.06
23564 H 91.74243899633167 29.830202982819173 103.3240267981045 H 0.0 **** 0.06
23565 H 92.47706691327508 31.32239419317949 103.95831409907723 H 0.0 **** 0.06
23566 C 25.357523060886024 72.99577929698623 40.40699336047561 C 0.0 **** -0.24
23567 H 26.282119740962344 73.53601649163991 40.20462665560797 H 0.0 **** 0.06
23568 H 24.50513651252595 73.63294546371498 40.16752498294147 H 0.0 **** 0.06
23569 H 25.32034722205441 72.71985087686613 41.460432950501286 H 0.0 **** 0.06
23570 H 25.32126628869628 72.09509883113196 39.794019699601506 H 0.0 **** 0.06
23571 C 88.04462306741758 7.675111916144672 107.62870989884141 C 0.0 **** -0.24
23572 H 87.84659108667856 8.016124091634595 106.612137898615 H 0.0 **** 0.06
23573 H 87.51638217778236 8.316873720564388 108.33482673220493 H 0.0 **** 0.06
23574 H 89.11504185703012 7.722724375881569 107.825669670885 H 0.0 **** 0.06
23575 H 87.69965753046111 6.648228599351768 107.74117711413487 H 0.0 **** 0.06
23576 C 96.89182651945946 40.867004381132936 82.0604739928487 C 0.0 **** -0.24
23577 H 96.16080454756205 41.40669736007095 81.4578630412667 H 0.0 **** 0.06
23578 H 97.60500662014724 40.36621145750023 81.40427413408241 H 0.0 **** 0.06
23579 H 96.38024694912662 40.12635366155642 82.67463876983277 H 0.0 **** 0.06
23580 H 97.42194578399443 41.56963952834926 82.70380438812532 H 0.0 **** 0.06
23581 C 17.528234943204893 97.94595410598117 60.75548935495186 C 0.0 **** -0.24
23582 H 16.97866230749358 98.68624647865636 61.337282015922256 H 0.0 **** 0.06
23583 H 17.810451113245335 97.11314303655053 61.40020429521803 H 0.0 **** 0.06
23584 H 18.424892400823666 98.4045535195005 60.33850789224465 H 0.0 **** 0.06
23585 H 16.89675283968961 97.58030018397102 59.94571647185984 H 0.0 **** 0.06
23586 C 90.38539303575995 115.3199220727438 34.927066092190984 C 0.0 **** -0.24
23587 H 90.91737013003495 114.80954729759031 35.73030363277087 H 0.0 **** 0.06
23588 H 90.48468533225306 114.74701645772814 34.00475823358926 H 0.0 **** 0.06
23589 H 90.80893254684847 116.31368538598588 34.785202581759336 H 0.0 **** 0.06
23590 H 89.33134825613465 115.4089525533272 35.18842347474518 H 0.0 **** 0.06
23591 C 96.6510850508145 72.77289173317254 77.85336005368947 C 0.0 **** -0.24
23592 H 95.68323656765337 73.24030999480759 77.67182206839712 H 0.0 **** 0.06
23593 H 96.96116390681998 72.96829964680052 78.88046933307828 H 0.0 **** 0.06
23594 H 97.38883322659157 73.18612757856319 77.16581274641777 H 0.0 **** 0.06
23595 H 96.56928835178628 71.69709650734328 77.6966102073319 H 0.0 **** 0.06
23596 C 49.36266784674242 111.80231799181193 92.50053882740738 C 0.0 **** -0.24
23597 H 48.70211815202496 112.5633983176872 92.9180127691945 H 0.0 **** 0.06
23598 H 48.770183254872386 110.94739467670422 92.1744258132665 H 0.0 **** 0.06
23599 H 50.07409203507295 111.48242211979465 93.26229656138823 H 0.0 **** 0.06
23600 H 49.903340819983 112.21756909046047 91.65071193290774 H 0.0 **** 0.06
23601 C 110.72938874938524 64.03268809498809 53.49614889563909 C 0.0 **** -0.24
23602 H 111.29218421674074 64.39138537785772 52.6344470529752 H 0.0 **** 0.06
23603 H 110.05558145385896 63.23434409691697 53.183757807438546 H 0.0 **** 0.06
23604 H 110.1482767468938 64.85375018309793 53.91746055271091 H 0.0 **** 0.06
23605 H 111.41989290744255 63.65237963342821 54.24931957329359 H 0.0 **** 0.06
23606 C 47.41866474171934 9.177344707780648 2.3825615176869697 C 0.0 **** -0.24
23607 H 47.56170930004981 9.454811826213216 3.4269966844496427 H 0.0 **** 0.06
23608 H 46.7498598727102 8.317678229389003 2.3245767142045235 H 0.0 **** 0.06
23609 H 48.38140349573848 8.919105523584392 1.9403893517004533 H 0.0 **** 0.06
23610 H 46.98268726788274 10.015952876623402 1.8404393115868203 H 0.0 **** 0.06
23611 C 40.390026795241766 47.74948463726568 52.55190759026101 C 0.0 **** -0.24
23612 H 40.61352930228233 46.995580255459615 51.79777212068757 H 0.0 **** 0.06
23613 H 40.10962162017785 48.682198735271584 52.06178215398535 H 0.0 **** 0.06
23614 H 41.27187543224588 47.91638753716073 53.171584149223804 H 0.0 **** 0.06
23615 H 39.566009734119405 47.404781267208975 53.17683641697113 H 0.0 **** 0.06
23616 C 22.080653863438954 45.41580109539035 11.01252082079603 C 0.0 **** -0.24
23617 H 21.0281186109562 45.144013490763086 11.08381962391103 H 0.0 **** 0.06
23618 H 22.171901083963803 46.49871432637755 10.932306130231773 H 0.0 **** 0.06
23619 H 22.518314863092826 44.947626357369074 10.130977399271252 H 0.0 **** 0.06
23620 H 22.60484813463202 45.07119021186213 11.904366831008161 H 0.0 **** 0.06
23621 C 70.16185409447272 18.151375630819757 20.672755012473374 C 0.0 **** -0.24
23622 H 70.85316263520862 17.40214977727814 20.284649644477327 H 0.0 **** 0.06
23623 H 70.7251971223174 18.937021823494106 21.176646141323317 H 0.0 **** 0.06
23624 H 69.47814253115628 17.682757096864478 21.379663526361696 H 0.0 **** 0.06
23625 H 69.59478725211858 18.5823963771808 19.847691460381384 H 0.0 **** 0.06
23626 C 75.18908749895459 62.457794152519796 9.063693956129299 C 0.0 **** -0.24
23627 H 74.16311607112812 62.579423842356675 8.714479876295002 H 0.0 **** 0.06
23628 H 75.22965845531874 62.62962374665568 10.138932579467536 H 0.0 **** 0.06
23629 H 75.83292493081652 63.17644807795472 8.556246941064757 H 0.0 **** 0.06
23630 H 75.52991886444698 61.44619950626145 8.843068006451176 H 0.0 **** 0.06
23631 C 71.19847159770855 101.39131656674002 65.0366265180586 C 0.0 **** -0.24
23632 H 71.85567752488032 102.22810523929567 65.27352660176811 H 0.0 **** 0.06
23633 H 70.3558353944176 101.74825967235918 64.44292498863015 H 0.0 **** 0.06
23634 H 70.83054345660135 100.9451526086848 65.96000298528355 H 0.0 **** 0.06
23635 H 71.75277281011523 100.64506850297207 64.46752763201988 H 0.0 **** 0.06
23636 C 11.350527400082498 82.0646151112694 17.145931108300147 C 0.0 **** -0.24
23637 H 10.775122261123798 81.39842532259416 17.78848276139331 H 0.0 **** 0.06
23638 H 11.105889534214612 81.86254212923137 16.10310399777029 H 0.0 **** 0.06
23639 H 12.415101378163229 81.89529162422878 17.309073330149886 H 0.0 **** 0.06
23640 H 11.106033511682753 83.09976725503441 17.383336474323983 H 0.0 **** 0.06
23641 C 44.71449134947477 95.18793479731929 40.77426272219853 C 0.0 **** -0.24
23642 H 44.337981534293306 94.17441340880123 40.635917829008946 H 0.0 **** 0.06
23643 H 43.88531514076129 95.85579110463868 41.005466658767205 H 0.0 **** 0.06
23644 H 45.20530464132298 95.52070473920077 39.859722385404055 H 0.0 **** 0.06
23645 H 45.43150997379303 95.20010701091317 41.595009742672815 H 0.0 **** 0.06
23646 C 38.49394734852257 110.89312589574476 18.837718107283422 C 0.0 **** -0.24
23647 H 38.147867468743925 109.94106465442334 18.435605372549304 H 0.0 **** 0.06
23648 H 38.24984603579165 111.69270562125914 18.137390014161497 H 0.0 **** 0.06
23649 H 39.57258223578424 110.85497675926956 18.984612237904088 H 0.0 **** 0.06
23650 H 38.00313809222456 111.08385178818085 19.79259952240642 H 0.0 **** 0.06
23651 C 29.651914088520215 10.28785378534165 11.763983832947247 C 0.0 **** -0.24
23652 H 30.528348989273326 10.015252277637963 12.35153111767869 H 0.0 **** 0.06
23653 H 29.225112339911277 11.211405068277735 12.15762702251837 H 0.0 **** 0.06
23654 H 28.91142668467441 9.490675514781412 11.8243968079299 H 0.0 **** 0.06
23655 H 29.943161912798956 10.435531690214525 10.724777208122106 H 0.0 **** 0.06
23656 C 77.65595027751516 5.079927027899799 94.4563247536222 C 0.0 **** -0.24
23657 H 77.25658236603485 5.439775991389098 93.50786095597812 H 0.0 **** 0.06
23658 H 78.62800232542031 4.616548554747226 94.28751787935553 H 0.0 **** 0.06
23659 H 76.9716262207271 4.347937230293496 94.88388645472648 H 0.0 **** 0.06
23660 H 77.76690729580213 5.918786493240219 95.14371468249881 H 0.0 **** 0.06
23661 C 97.21239529836208 44.27725266606632 87.10929458178248 C 0.0 **** -0.24
23662 H 96.31114957794179 43.67099452105617 87.02792707521228 H 0.0 **** 0.06
23663 H 98.01051401514752 43.82191296562689 86.52205537466155 H 0.0 **** 0.06
23664 H 97.51745574953685 44.33659184358527 88.15391581505821 H 0.0 **** 0.06
23665 H 97.01041196026225 45.280751901071994 86.73260284879822 H 0.0 **** 0.06
23666 C 71.9489789253659 10.300635606868312 92.20128618057197 C 0.0 **** -0.24
23667 H 71.42064788025039 11.110808039556815 92.70212187272165 H 0.0 **** 0.06
23668 H 71.6580752412043 10.270734843867132 91.15068368092915 H 0.0 **** 0.06
23669 H 71.69474803152639 9.352647537895706 92.67534822800991 H 0.0 **** 0.06
23670 H 73.0239702081455 10.466993991158063 92.2760807526376 H 0.0 **** 0.06
23671 C 72.62037150352853 8.222312807713426 20.145568878810025 C 0.0 **** -0.24
23672 H 72.9953793550228 7.653143782731501 19.29409405755399 H 0.0 **** 0.06
23673 H 73.34235059699049 8.174008833787827 20.961031014759158 H 0.0 **** 0.06
23674 H 71.67065818470701 7.79931418493719 20.474180161134882 H 0.0 **** 0.06
23675 H 72.47300915641128 9.261268309329505 19.85104834274489 H 0.0 **** 0.06
23676 C 99.16895109768825 90.31349552017917 2.420894376451166 C 0.0 **** -0.24
23677 H 98.1340494616087 90.11974759034587 2.7017606437363977 H 0.0 **** 0.06
23678 H 99.83117976748849 89.69392994196915 3.025970620718292 H 0.0 **** 0.06
23679 H 99.400609473772 91.36532635120966 2.5894199577642603 H 0.0 **** 0.06
23680 H 99.30947026601757 90.07410951894883 1.366422798492028 H 0.0 **** 0.06
23681 C 64.94589141020253 4.615262827265724 60.681895593808974 C 0.0 **** -0.24
23682 H 64.70946644836846 5.676969373566521 60.759998503465596 H 0.0 **** 0.06
23683 H 65.90374130030474 4.493598618729095 60.17613778551777 H 0.0 **** 0.06
23684 H 64.16570074299358 4.111316940302174 60.11147678609723 H 0.0 **** 0.06
23685 H 65.00359196057542 4.182035492777288 61.680765612609235 H 0.0 **** 0.06
23686 C 2.668225944142449 36.8755498966114 68.17141614428962 C 0.0 **** -0.24
23687 H 2.265979543509303 37.2704388667531 67.23832177299462 H 0.0 **** 0.06
23688 H 2.9718219814391205 37.70208071718365 68.81364802210987 H 0.0 **** 0.06
23689 H 3.5313794359645954 36.245424938879715 67.95592098051384 H 0.0 **** 0.06
23690 H 1.9034340751155412 36.28450733358262 68.67479831829723 H 0.0 **** 0.06
23691 C 37.19563078790142 17.846179417283793 54.16137708176285 C 0.0 **** -0.24
23692 H 37.618698951629995 18.84980112132601 54.11208823354434 H 0.0 **** 0.06
23693 H 36.63955782880467 17.641179383754178 53.247078250773995 H 0.0 **** 0.06
23694 H 36.52574830189843 17.776886892288132 55.01852908907841 H 0.0 **** 0.06
23695 H 37.99942507408514 17.118039268534744 54.26947525576463 H 0.0 **** 0.06
23696 C 1.5006435570531522 15.955000182213496 51.70885090239369 C 0.0 **** -0.24
23697 H 1.357194841813751 15.545719448738907 50.70805052685729 H 0.0 **** 0.06
23698 H 1.4156553922488229 15.154463739957976 52.44324516407303 H 0.0 **** 0.06
23699 H 0.7394011048270528 16.710387046992082 51.90373334443319 H 0.0 **** 0.06
23700 H 2.4890376989607006 16.409471172854012 51.77748542217017 H 0.0 **** 0.06
23701 C 63.941173721984754 7.78942912187857 10.644418874469139 C 0.0 **** -0.24
23702 H 65.00976037180777 7.954434835003994 10.78149268197533 H 0.0 **** 0.06
23703 H 63.44381066156558 8.746296716975309 10.482224508829084 H 0.0 **** 0.06
23704 H 63.53042413142893 7.312884123581711 11.534966030466595 H 0.0 **** 0.06
23705 H 63.7806260508914 7.145288429838686 9.779756639007992 H 0.0 **** 0.06
23706 C 80.11215513743835 26.13905611213204 87.28681040182491 C 0.0 **** -0.24
23707 H 79.56447575220419 26.411242583112795 88.18953927516031 H 0.0 **** 0.06
23708 H 79.7016230782247 25.214809489389182 86.8790246527592 H 0.0 **** 0.06
23709 H 81.1638230792229 25.99399870981111 87.53034755538022 H 0.0 **** 0.06
23710 H 80.01547905199506 26.936499945902767 86.54956643962927 H 0.0 **** 0.06
23711 C 28.62537736964572 71.6605026592814 74.51779152430476 C 0.0 **** -0.24
23712 H 28.615558420743355 70.58773662750633 74.71371306987902 H 0.0 **** 0.06
23713 H 27.990075657049715 72.16799676322472 75.24321414762372 H 0.0 **** 0.06
23714 H 28.248814976036613 71.8480252508374 73.51142941851694 H 0.0 **** 0.06
23715 H 29.644847830100616 72.03606216012835 74.59975821127873 H 0.0 **** 0.06
23716 C 32.407590554351714 97.9962161026746 74.1731414638495 C 0.0 **** -0.24
23717 H 33.11456077999151 97.74160990244594 73.38369335081245 H 0.0 **** 0.06
23718 H 31.436601970610525 98.22263483874418 73.73188494037339 H 0.0 **** 0.06
23719 H 32.77087133484764 98.86736142270975 74.7189660686563 H 0.0 **** 0.06
23720 H 32.308800646373584 97.15404898447257 74.85763223867482 H 0.0 **** 0.06
23721 C 113.00184027806534 67.75515319233392 77.39712075740768 C 0.0 **** -0.24
23722 H 112.61059438898548 66.76758000029201 77.15291102448869 H 0.0 **** 0.06
23723 H 114.04017967297929 67.8250437000184 77.06987117823414 H 0.0 **** 0.06
23724 H 112.94853261196681 67.91088831938066 78.47419938284938 H 0.0 **** 0.06
23725 H 112.40917996086415 68.5165969813051 76.88938490025889 H 0.0 **** 0.06
23726 C 78.68479712325518 51.596584187500525 19.22278480914224 C 0.0 **** -0.24
23727 H 78.22950628381744 50.60850044023425 19.289397948168585 H 0.0 **** 0.06
23728 H 77.90442044379932 52.356899736473395 19.218094320701994 H 0.0 **** 0.06
23729 H 79.26589886115426 51.66648897577204 18.303471140022168 H 0.0 **** 0.06
23730 H 79.33975521029595 51.752317468905915 20.07962001084178 H 0.0 **** 0.06
23731 C 92.2323107973467 108.79304330951436 15.753384700350296 C 0.0 **** -0.24
23732 H 91.29242993268964 109.33812848619117 15.84251765529325 H 0.0 **** 0.06
23733 H 92.044060708267 107.81324992232024 15.31320696543672 H 0.0 **** 0.06
23734 H 92.67583291595008 108.66887754328437 16.741597521833597 H 0.0 **** 0.06
23735 H 92.91738071229639 109.35205035990953 15.115339302770252 H 0.0 **** 0.06
23736 C 86.28135681278235 111.26146912989302 11.586381939064626 C 0.0 **** -0.24
23737 H 86.42005040460862 111.8319085908559 10.667729943462117 H 0.0 **** 0.06
23738 H 86.8896996334039 111.69841449091217 12.379257343152744 H 0.0 **** 0.06
23739 H 86.5860601435291 110.22857636527948 11.42189213597792 H 0.0 **** 0.06
23740 H 85.23108784676771 111.28945380001622 11.87580979494998 H 0.0 **** 0.06
23741 C 52.70353879782442 40.096160611438876 40.198180285074784 C 0.0 **** -0.24
23742 H 51.934733491091436 40.769346846065616 39.81905070163049 H 0.0 **** 0.06
23743 H 52.38569415307893 39.06294235247145 40.053102888019396 H 0.0 **** 0.06
23744 H 52.8576647458965 40.28283632879646 41.26099679195818 H 0.0 **** 0.06
23745 H 53.63536304900447 40.268803018066535 39.65959814421018 H 0.0 **** 0.06
23746 C 38.18626924233621 7.137358100126164 31.388602953230055 C 0.0 **** -0.24
23747 H 37.53617864622936 8.003252990958657 31.51295244021386 H 0.0 **** 0.06
23748 H 38.9109360718453 7.338066052298018 30.598246722658203 H 0.0 **** 0.06
23749 H 37.58698482811883 6.267707345307102 31.1201774055949 H 0.0 **** 0.06
23750 H 38.71275236870548 6.942084317527616 32.32321745260217 H 0.0 **** 0.06
23751 C 12.942424721980409 79.7499644665391 114.83462923612686 C 0.0 **** -0.24
23752 H 13.134944470129163 80.08974693238889 115.8527071445178 H 0.0 **** 0.06
23753 H 12.27756861377765 80.45479443522524 114.33557952767075 H 0.0 **** 0.06
23754 H 12.474905024878293 78.7656013472421 114.86356281941794 H 0.0 **** 0.06
23755 H 13.884365702883365 79.68849996206544 114.2884498445111 H 0.0 **** 0.06
23756 C 10.136859819403611 96.61782867130358 105.88902696756303 C 0.0 **** -0.24
23757 H 9.550595373339945 97.38044696453034 105.3753744091525 H 0.0 **** 0.06
23758 H 9.51795236042878 96.13152516571475 106.64348243217856 H 0.0 **** 0.06
23759 H 10.99710927593668 97.08399063938043 106.36934086751792 H 0.0 **** 0.06
23760 H 10.480755442313779 95.8767756553197 105.16695160946172 H 0.0 **** 0.06
23761 C 73.06881280963847 47.801491480001005 103.9947313273817 C 0.0 **** -0.24
23762 H 72.03454284744203 47.48481922298407 103.86495147843577 H 0.0 **** 0.06
23763 H 73.19083761828176 48.81137622869173 103.60295549517559 H 0.0 **** 0.06
23764 H 73.72821428005449 47.12007678877433 103.45620803845235 H 0.0 **** 0.06
23765 H 73.3216564927757 47.789693679553835 105.05481029746326 H 0.0 **** 0.06
23766 C 24.80905735267089 101.11763960087472 49.938726652847905 C 0.0 **** -0.24
23767 H 25.2074886793461 100.3545795688599 49.27058192219319 H 0.0 **** 0.06
23768 H 25.191623185579473 102.09546658024955 49.64214872023982 H 0.0 **** 0.06
23769 H 25.116963762227293 100.90168732961162 50.96220496809664 H 0.0 **** 0.06
23770 H 23.720421941931207 101.12038080037891 49.87874316958962 H 0.0 **** 0.06
23771 C 101.5027252426512 115.1181838355948 109.28611417857681 C 0.0 **** -0.24
23772 H 100.66399540938454 114.6432106034921 108.77613250323535 H 0.0 **** 0.06
23773 H 101.1288988240363 115.73950329726219 110.09974890706721 H 0.0 **** 0.06
23774 H 102.0517318493315 115.73921424477618 108.57813851303892 H 0.0 **** 0.06
23775 H 102.16455082431878 114.35138002230309 109.68716566394292 H 0.0 **** 0.06
23776 C 114.49970639087081 111.44709816117359 51.07083886455587 C 0.0 **** -0.24
23777 H 114.68261393035831 110.66073864434765 50.338519196126185 H 0.0 **** 0.06
23778 H 113.44928660015921 111.7369400408902 51.03764964499413 H 0.0 **** 0.06
23779 H 115.12346399127205 112.31063687480733 50.83940655638611 H 0.0 **** 0.06
23780 H 114.74458970393098 111.07922798009258 52.067852564024804 H 0.0 **** 0.06
23781 C 113.17954948353947 84.15777930349105 31.248059954566656 C 0.0 **** -0.24
23782 H 113.86246659095873 84.60029410393645 31.974220756065364 H 0.0 **** 0.06
23783 H 112.37820142503165 84.86270138914534 31.02702672951429 H 0.0 **** 0.06
23784 H 112.75516484223813 83.24240535969668 31.661206184661808 H 0.0 **** 0.06
23785 H 113.72363159536633 83.92626327115647 30.33280234488251 H 0.0 **** 0.06
23786 C 86.96269670018461 39.49425526284273 104.89933009640345 C 0.0 **** -0.24
23787 H 85.94871480450868 39.46341841862383 104.50109230848919 H 0.0 **** 0.06
23788 H 87.67310966627713 39.57080543820891 104.07537007347678 H 0.0 **** 0.06
23789 H 87.15735477786984 38.58349250940111 105.4645494545694 H 0.0 **** 0.06
23790 H 87.06944184034805 40.358446743964706 105.5541698115427 H 0.0 **** 0.06
23791 C 52.977582536044906 49.637312158294776 83.94463850899734 C 0.0 **** -0.24
23792 H 52.429627377396 50.345235640956105 84.56749572580335 H 0.0 **** 0.06
23793 H 53.66846923044522 50.18012873645665 83.2998949418124 H 0.0 **** 0.06
23794 H 52.27340700367668 49.07380265220689 83.33166422773667 H 0.0 **** 0.06
23795 H 53.5349000479663 48.9508207887755 84.58051761489219 H 0.0 **** 0.06
23796 C 77.03412974420249 108.90754311677193 41.76351937072104 C 0.0 **** -0.24
23797 H 76.54305224077198 109.86606985075939 41.93569957806619 H 0.0 **** 0.06
23798 H 77.49701618421527 108.90972810122118 40.77610203771047 H 0.0 **** 0.06
23799 H 76.29686427921297 108.10723495041368 41.81872779586001 H 0.0 **** 0.06
23800 H 77.79867620965352 108.750764993952 42.52371790697498 H 0.0 **** 0.06
23801 C 105.42686215239209 62.481389236977606 107.61161208519445 C 0.0 **** -0.24
23802 H 105.30078008172917 63.42046920502975 107.07437137366105 H 0.0 **** 0.06
23803 H 105.63376418967141 62.68907405515108 108.66195782730034 H 0.0 **** 0.06
23804 H 106.2586095123534 61.9239625570558 107.18044576159635 H 0.0 **** 0.06
23805 H 104.5144564905973 61.89082303876643 107.53088409096515 H 0.0 **** 0.06
23806 C 30.57517548909837 65.97777191607213 88.14562042857804 C 0.0 **** -0.24
23807 H 29.974999599747036 66.68892211213432 87.57760380712284 H 0.0 **** 0.06
23808 H 30.23287596027211 65.95982756883132 89.18130894499672 H 0.0 **** 0.06
23809 H 31.62184629131559 66.27946344404137 88.11439584977882 H 0.0 **** 0.06
23810 H 30.469732619904732 64.98399748603879 87.71065062914175 H 0.0 **** 0.06
23811 C 48.78639560422005 47.65523341734166 98.80418719256113 C 0.0 **** -0.24
23812 H 49.08825899921678 47.185636542043596 97.86850521396332 H 0.0 **** 0.06
23813 H 49.55712166198846 48.35698484021634 99.12312267769329 H 0.0 **** 0.06
23814 H 48.65184911716118 46.88996436261414 99.56850653723987 H 0.0 **** 0.06
23815 H 47.847623485613646 48.18898868603776 98.656373888541 H 0.0 **** 0.06
23816 C 20.997592354795245 3.748381986894259 83.5127921099313 C 0.0 **** -0.24
23817 H 20.58675384705188 3.152005799035706 82.6984772528399 H 0.0 **** 0.06
23818 H 20.56957618685388 4.750180377098076 83.48162031879656 H 0.0 **** 0.06
23819 H 22.08058715866909 3.811988391290967 83.40439438531592 H 0.0 **** 0.06
23820 H 20.755311223403965 3.2782501070796286 84.46610446551495 H 0.0 **** 0.06
23821 C 22.835474798960085 6.126850897906138 93.21259690181193 C 0.0 **** -0.24
23822 H 23.681742999406293 5.712159531419047 93.76033019488165 H 0.0 **** 0.06
23823 H 23.182110094476958 6.533966742682878 92.26325441312093 H 0.0 **** 0.06
23824 H 22.375780015579274 6.920786190448126 93.80278510735951 H 0.0 **** 0.06
23825 H 22.1028857191167 5.3419805745028555 93.02781243642767 H 0.0 **** 0.06
23826 C 113.7881033777733 71.54461494839819 4.356113688516903 C 0.0 **** -0.24
23827 H 114.03114556210099 71.46725052297549 5.416454609611137 H 0.0 **** 0.06
23828 H 114.65072385806741 71.23945424440302 3.7628485974484125 H 0.0 **** 0.06
23829 H 113.5288238430011 72.575267229595 4.116878505708176 H 0.0 **** 0.06
23830 H 112.94314106731551 70.89391324112108 4.129436443580067 H 0.0 **** 0.06
23831 C 103.10002698192426 106.26677236376038 90.12537551493962 C 0.0 **** -0.24
23832 H 103.56951396704562 106.53353942267483 91.07281834981237 H 0.0 **** 0.06
23833 H 102.81987944448434 105.21322781769356 90.14378310122233 H 0.0 **** 0.06
23834 H 103.80144256842712 106.44304589899365 89.31072694613634 H 0.0 **** 0.06
23835 H 102.20960290429588 106.87808530331294 89.97781190431039 H 0.0 **** 0.06
23836 C 99.96996594905379 63.12014988541421 54.66755489684374 C 0.0 **** -0.24
23837 H 99.84220504487276 62.963021345720705 55.73902135993393 H 0.0 **** 0.06
23838 H 100.9732809265051 63.50202454860276 54.47532995919113 H 0.0 **** 0.06
23839 H 99.23270693701154 63.84090233695325 54.31601183766796 H 0.0 **** 0.06
23840 H 99.83377560719357 62.174677852473195 54.144048172804844 H 0.0 **** 0.06
23841 C 104.91372543113971 11.261650623180344 63.649149005672996 C 0.0 **** -0.24
23842 H 105.60002360764034 11.073736437756963 64.47425176874538 H 0.0 **** 0.06
23843 H 105.36146945432188 10.916405289104773 62.71697545296814 H 0.0 **** 0.06
23844 H 104.71238004856073 12.330650259796016 63.580852884890135 H 0.0 **** 0.06
23845 H 103.98038587215277 10.726652464899473 63.8231454567578 H 0.0 **** 0.06
23846 C 12.060704993596122 106.12774067062823 43.86444663706614 C 0.0 **** -0.24
23847 H 12.123992723824934 107.0779878550449 43.33370890767307 H 0.0 **** 0.06
23848 H 11.943677852796696 105.31781427213596 43.14521345706149 H 0.0 **** 0.06
23849 H 11.20353498071752 106.14471074140575 44.5370535813706 H 0.0 **** 0.06
23850 H 12.972285186502287 105.97411657260594 44.442135787015474 H 0.0 **** 0.06
23851 C 18.415169047218626 35.455942162818104 62.08055994360541 C 0.0 **** -0.24
23852 H 17.562214309003366 35.71071464767121 62.70990624990054 H 0.0 **** 0.06
23853 H 19.323855542226852 35.46064698035562 62.68177473123842 H 0.0 **** 0.06
23854 H 18.505730555363755 36.188258014999576 61.27820112773804 H 0.0 **** 0.06
23855 H 18.266879315919653 34.46426751794408 61.652340202129665 H 0.0 **** 0.06
23856 C 98.50239879452988 52.64540530420947 26.19079580277412 C 0.0 **** -0.24
23857 H 98.28664746928894 52.525090851210614 27.252513449621972 H 0.0 **** 0.06
23858 H 99.25651473740365 51.918994267667124 25.88981965866924 H 0.0 **** 0.06
23859 H 98.87376194541386 53.65364458912116 26.007958453261836 H 0.0 **** 0.06
23860 H 97.59016221695794 52.48356652063412 25.615460890481756 H 0.0 **** 0.06
23861 C 107.2010133534648 107.25090523241431 78.23806529877201 C 0.0 **** -0.24
23862 H 106.63739271981194 106.69115949823895 77.49110807409791 H 0.0 **** 0.06
23863 H 106.52164682924143 107.60886677922053 79.01217527640746 H 0.0 **** 0.06
23864 H 107.6898075214558 108.10048506246741 77.76141457087238 H 0.0 **** 0.06
23865 H 107.95404867807676 106.60228543699976 78.68556804826846 H 0.0 **** 0.06
23866 C 64.48027240333795 13.701943445563984 12.022333244830918 C 0.0 **** -0.24
23867 H 64.37197170804046 13.657814253292145 13.105470381767361 H 0.0 **** 0.06
23868 H 65.53334486441128 13.59882359085816 11.758192537548979 H 0.0 **** 0.06
23869 H 64.10622077889639 14.659334001627315 11.658368535652443 H 0.0 **** 0.06
23870 H 63.90994636354526 12.893147565749075 11.567116917843208 H 0.0 **** 0.06
23871 C 59.13141717155946 20.924623550730132 56.55907768146909 C 0.0 **** -0.24
23872 H 58.44821147657753 20.30013506783891 57.133377760208475 H 0.0 **** 0.06
23873 H 59.154084091740074 21.927208043618748 56.985992298872304 H 0.0 **** 0.06
23874 H 58.7926470870389 20.977482643200403 55.5251230325141 H 0.0 **** 0.06
23875 H 60.13194064197049 20.49245918661984 56.59206778776996 H 0.0 **** 0.06
23876 C 74.76717812291753 21.009207568296233 10.12165669336045 C 0.0 **** -0.24
23877 H 74.13563117213783 21.63377552058637 10.753178550773285 H 0.0 **** 0.06
23878 H 75.81068378735114 21.299465125637994 10.251252749626602 H 0.0 **** 0.06
23879 H 74.47975265068106 21.139608277746504 9.079207795084358 H 0.0 **** 0.06
23880 H 74.64319425071272 19.962898500254653 10.405542298574531 H 0.0 **** 0.06
23881 C 77.61820430586886 54.67467526847282 15.847002815792536 C 0.0 **** -0.24
23882 H 77.06290565102381 55.52663131387094 16.237915583546254 H 0.0 **** 0.06
23883 H 78.68683256956575 54.877305701107964 15.911470199484313 H 0.0 **** 0.06
23884 H 77.3419705110004 54.508697096839086 14.80565383476528 H 0.0 **** 0.06
23885 H 77.37968178086265 53.7868147676451 16.431420656401514 H 0.0 **** 0.06
23886 C 29.354154071247507 114.82425459603527 47.91633287375652 C 0.0 **** -0.24
23887 H 30.31946962389975 114.32743271264357 47.818934429380846 H 0.0 **** 0.06
23888 H 28.767126683832373 114.65890958866538 47.011861460458135 H 0.0 **** 0.06
23889 H 29.508545077678747 115.89357783764677 48.059244573903584 H 0.0 **** 0.06
23890 H 28.820749114097737 114.41600807465508 48.774757292233176 H 0.0 **** 0.06
23891 C 99.58378059884694 81.46547448837387 77.63554798133212 C 0.0 **** -0.24
23892 H 100.02011891692183 80.47280894494968 77.52767070832176 H 0.0 **** 0.06
23893 H 99.65415576154078 81.78144633797409 78.67709719615607 H 0.0 **** 0.06
23894 H 98.53621995512998 81.43615514058806 77.33476124198134 H 0.0 **** 0.06
23895 H 100.124657638661 82.17061665175778 77.00415972545314 H 0.0 **** 0.06
23896 C 79.19417282419782 92.95636922201302 93.09469920127246 C 0.0 **** -0.24
23897 H 78.25401509987283 92.6873246486566 93.57501051830772 H 0.0 **** 0.06
23898 H 80.02235052919691 92.49827193288674 93.63624713831562 H 0.0 **** 0.06
23899 H 79.30927752221189 94.0400674712478 93.10309834217077 H 0.0 **** 0.06
23900 H 79.19033197289855 92.59954339308587 92.06508466541683 H 0.0 **** 0.06
23901 C 93.16225562523346 53.03614089416374 35.913233748488324 C 0.0 **** -0.24
23902 H 93.63542740614257 53.38029014973958 36.833504563953056 H 0.0 **** 0.06
23903 H 92.94363124341001 53.89233909811338 35.27565667230448 H 0.0 **** 0.06
23904 H 92.23537956895504 52.51606976254868 36.15493675279697 H 0.0 **** 0.06
23905 H 93.83460409989968 52.35632084483075 35.39124361211668 H 0.0 **** 0.06
23906 C 17.84410567926983 30.874978316647756 61.060141027844494 C 0.0 **** -0.24
23907 H 17.736515936745434 29.79241046414684 60.99180471519725 H 0.0 **** 0.06
23908 H 18.701243877697607 31.192517508747812 60.46734472435975 H 0.0 **** 0.06
23909 H 17.996557917816887 31.158758274440345 62.10160913738336 H 0.0 **** 0.06
23910 H 16.940709096325577 31.353953920942303 60.68117849879556 H 0.0 **** 0.06
23911 C 27.027850163895636 65.66125205780833 38.48467019292403 C 0.0 **** -0.24
23912 H 26.466276951167686 64.73049700603974 38.57673120854594 H 0.0 **** 0.06
23913 H 28.092766761900634 65.45253395477914 38.58286336254474 H 0.0 **** 0.06
23914 H 26.717609354870547 66.35095726623592 39.26820691396021 H 0.0 **** 0.06
23915 H 26.832539999720723 66.10735019981144 37.50924824845614 H 0.0 **** 0.06
23916 C 22.031317151011763 32.07709028870815 42.04278884428828 C 0.0 **** -0.24
23917 H 21.017997963951444 32.35511657722796 41.75196037959108 H 0.0 **** 0.06
23918 H 21.99028652084533 31.297441518719296 42.803404933566526 H 0.0 **** 0.06
23919 H 22.54602169025017 32.95028728841399 42.444682906426294 H 0.0 **** 0.06
23920 H 22.57056124736488 31.70640233231478 41.170876683589626 H 0.0 **** 0.06
23921 C 70.6063825018159 2.161580345655018 37.3241521977034 C 0.0 **** -0.24
23922 H 70.08372836875895 3.0643695824823176 37.005585258227086 H 0.0 **** 0.06
23923 H 69.8774263819491 1.3959882351747552 37.59165043032462 H 0.0 **** 0.06
23924 H 71.22861059436782 2.3887879727109116 38.189402110729105 H 0.0 **** 0.06
23925 H 71.23306041166808 1.7979940894624669 36.51010345412968 H 0.0 **** 0.06
23926 C 113.19091780286618 87.67020222587071 107.15956763024609 C 0.0 **** -0.24
23927 H 113.40671078185812 88.70985301666033 106.91183144397377 H 0.0 **** 0.06
23928 H 113.59348276681739 87.02022427907082 106.38208790453355 H 0.0 **** 0.06
23929 H 112.11180295253786 87.53076779239977 107.2273006085484 H 0.0 **** 0.06
23930 H 113.65103330319877 87.4218228215297 108.11559007284869 H 0.0 **** 0.06
23931 C 25.488394912475485 72.3564891638528 26.781713723945877 C 0.0 **** -0.24
23932 H 25.96503621640568 72.8779614803123 25.95137085959523 H 0.0 **** 0.06
23933 H 25.731338096164166 71.294469125624 26.730384551802388 H 0.0 **** 0.06
23934 H 24.407789906341236 72.48539444940789 26.718083404457886 H 0.0 **** 0.06
23935 H 25.848839541107367 72.76825221868906 27.72407425842598 H 0.0 **** 0.06
23936 C 3.9244236205531298 65.73542820538609 14.469988586686142 C 0.0 **** -0.24
23937 H 3.530048674048073 64.73547130109301 14.648022545842718 H 0.0 **** 0.06
23938 H 4.476725491171763 66.06945782166207 15.347988232947266 H 0.0 **** 0.06
23939 H 3.0994480092541394 66.42198221072869 14.276431187621068 H 0.0 **** 0.06
23940 H 4.590723296893831 65.7156818859583 13.60669752082358 H 0.0 **** 0.06
23941 C 15.041434744255767 10.660831013492842 94.65471254542496 C 0.0 **** -0.24
23942 H 13.967971892538362 10.685621233977223 94.46790920035079 H 0.0 **** 0.06
23943 H 15.559733656513632 11.213105164628011 93.87094660853091 H 0.0 **** 0.06
23944 H 15.384197127154945 9.626027350108249 94.6586992286218 H 0.0 **** 0.06
23945 H 15.25238511782517 11.117441225477126 95.62256775218225 H 0.0 **** 0.06
23946 C 2.4637526315721345 77.30868765565181 58.73493604134086 C 0.0 **** -0.24
23947 H 2.2890310168710215 76.50695840755041 59.45354317649419 H 0.0 **** 0.06
23948 H 1.5247380176776204 77.8247411062003 58.53303510969906 H 0.0 **** 0.06
23949 H 2.853694846683382 76.88690620880303 57.80909265318205 H 0.0 **** 0.06
23950 H 3.184985456678419 78.0136695658895 59.14589365029681 H 0.0 **** 0.06
23951 C 3.7137801540947777 53.9303734517994 74.52644987744213 C 0.0 **** -0.24
23952 H 4.672311923060292 53.41967714375993 74.61696874320177 H 0.0 **** 0.06
23953 H 3.357889066463784 54.21154777263374 75.5177475650425 H 0.0 **** 0.06
23954 H 2.9900192481751446 53.263855464601626 74.05573067656798 H 0.0 **** 0.06
23955 H 3.834865033823462 54.824415027507335 73.91527917071284 H 0.0 **** 0.06
23956 C 39.15739020376492 62.297207694595784 108.33375869631087 C 0.0 **** -0.24
23957 H 39.579160384899694 61.72329708991083 109.1597285293771 H 0.0 **** 0.06
23958 H 38.25120153375377 61.80704149168457 107.97647477798711 H 0.0 **** 0.06
23959 H 39.8836344481125 62.35492728685824 107.52384560107984 H 0.0 **** 0.06
23960 H 38.916096689088505 63.30261101222732 108.67795359773137 H 0.0 **** 0.06
23961 C 52.874564751868206 114.69374982854347 91.99512322888847 C 0.0 **** -0.24
23962 H 53.86557917451336 115.11218852310003 91.82269364728779 H 0.0 **** 0.06
23963 H 52.93704675141913 113.60583426375518 92.0068385721737 H 0.0 **** 0.06
23964 H 52.203036497035384 115.01108235532399 91.19667255073728 H 0.0 **** 0.06
23965 H 52.49243900011476 115.04647343506326 92.95300762390627 H 0.0 **** 0.06
23966 C 42.597558285548644 110.12163783241574 82.98990316905088 C 0.0 **** -0.24
23967 H 42.530786990237345 109.43992745737563 83.83747150372413 H 0.0 **** 0.06
23968 H 42.672458560735606 111.14678362197428 83.35395078648655 H 0.0 **** 0.06
23969 H 41.707088891972774 110.02008087094995 82.36932923184308 H 0.0 **** 0.06
23970 H 43.48112667309533 109.88040670180203 82.39913164928258 H 0.0 **** 0.06
23971 C 95.19569509183087 51.35970613825401 72.27145631274527 C 0.0 **** -0.24
23972 H 96.22618973096611 51.30558781893463 71.91918708606502 H 0.0 **** 0.06
23973 H 95.12522424072779 50.90248171124856 73.25860435543007 H 0.0 **** 0.06
23974 H 94.54609175622869 50.82770241329905 71.57707238092539 H 0.0 **** 0.06
23975 H 94.88732619497146 52.40376525369468 72.33042894161193 H 0.0 **** 0.06
23976 C 72.03651463615113 53.81330854444976 8.932872258385402 C 0.0 **** -0.24
23977 H 71.5480943606646 54.17679758758106 8.028987929260552 H 0.0 **** 0.06
23978 H 71.65522497115379 52.82181133913048 9.178620257982914 H 0.0 **** 0.06
23979 H 71.83075755063929 54.49624451542041 9.757532233886991 H 0.0 **** 0.06
23980 H 73.11297097451427 53.75875172628405 8.767288687261981 H 0.0 **** 0.06
23981 C 34.56551402807628 97.76895837482819 112.37846090479411 C 0.0 **** -0.24
23982 H 34.146602811711844 97.28971838254921 111.49297796239784 H 0.0 **** 0.06
23983 H 35.531152767543915 97.32003873131241 112.61272053846125 H 0.0 **** 0.06
23984 H 33.88648231773946 97.63318713602641 113.22001579912 H 0.0 **** 0.06
23985 H 34.6964798003335 98.83398378722003 112.18567755572502 H 0.0 **** 0.06
23986 C 86.21378367839243 45.444013300504956 106.36763440976941 C 0.0 **** -0.24
23987 H 85.23294029431212 45.670420806976416 106.78608329402469 H 0.0 **** 0.06
23988 H 86.9511950955607 46.1368979972095 106.77313257732915 H 0.0 **** 0.06
23989 H 86.17826840918325 45.54537182885434 105.28284056739378 H 0.0 **** 0.06
23990 H 86.49273091451371 44.42336256897936 106.62848120032996 H 0.0 **** 0.06
23991 C 79.78634513205428 15.037078630721616 90.12743582963678 C 0.0 **** -0.24
23992 H 80.04052914527911 14.615502478650647 89.15431371099437 H 0.0 **** 0.06
23993 H 79.70117257806511 16.120750718533046 90.04267124354098 H 0.0 **** 0.06
23994 H 80.56796030205567 14.789082928129343 90.84562899212459 H 0.0 **** 0.06
23995 H 78.8370272425231 14.622146823236665 90.46551817083993 H 0.0 **** 0.06
23996 C 40.36749856094741 52.646963248790314 42.89380295519226 C 0.0 **** -0.24
23997 H 40.486256904159404 52.82844011113889 43.96267256326212 H 0.0 **** 0.06
23998 H 41.33107557731421 52.37773063450956 42.462714085859744 H 0.0 **** 0.06
23999 H 39.992136162327114 53.549730844396436 42.41177359935324 H 0.0 **** 0.06
24000 H 39.65986520482568 51.832442686431875 42.74170168420548 H 0.0 **** 0.06
24001 C 40.92135922273485 70.96071519191972 9.256178856182942 C 0.0 **** -0.24
24002 H 40.31688229547018 70.13145925405027 8.888938093377078 H 0.0 **** 0.06
24003 H 41.954648485404306 70.82579842998884 8.938010244759823 H 0.0 **** 0.06
24004 H 40.87689312293949 70.98798105038553 10.345499269744039 H 0.0 **** 0.06
24005 H 40.535862784347586 71.89747928457716 8.853078230393578 H 0.0 **** 0.06
24006 C 20.482329168973877 32.682714994224796 19.9471604949004 C 0.0 **** -0.24
24007 H 21.5631878160591 32.72873818775497 20.08645909523341 H 0.0 **** 0.06
24008 H 20.261544040045067 32.34334518460298 18.93564946939199 H 0.0 **** 0.06
24009 H 20.054184516342332 33.673384043742885 20.101172068438586 H 0.0 **** 0.06
24010 H 20.053437140342965 31.985356757531065 20.667547012540865 H 0.0 **** 0.06
24011 C 109.20604771638703 38.400099883043026 87.79176116602888 C 0.0 **** -0.24
24012 H 110.25658892857678 38.22787528494342 87.5603409153779 H 0.0 **** 0.06
24013 H 108.92493765356363 37.80860837685472 88.66403209757192 H 0.0 **** 0.06
24014 H 108.59328371069121 38.105325669711874 86.9396232582873 H 0.0 **** 0.06
24015 H 109.0491598278857 39.457412649433195 88.00379989706812 H 0.0 **** 0.06
24016 C 22.170057210604938 9.430248696650409 39.01596375457348 C 0.0 **** -0.24
24017 H 22.186959511349187 8.780584421290484 38.140787083281396 H 0.0 **** 0.06
24018 H 23.172012237004168 9.490653310733862 39.44186985980782 H 0.0 **** 0.06
24019 H 21.483282959233748 9.024422814604492 39.75738328419666 H 0.0 **** 0.06
24020 H 21.839270547879465 10.426751534620024 38.72151020843109 H 0.0 **** 0.06
24021 C 115.2364114505404 29.369282605703425 16.712236945048943 C 0.0 **** -0.24
24022 H 115.97127386976612 28.56907440912879 16.803892050002787 H 0.0 **** 0.06
24023 H 114.50890863081715 29.10699726443356 15.94267945884522 H 0.0 **** 0.06
24024 H 115.74120070151038 30.29444935296374 16.434979251877763 H 0.0 **** 0.06
24025 H 114.72561374093907 29.50469071104144 17.66448259648385 H 0.0 **** 0.06
24026 C 23.18186041373452 55.047510862615184 115.28079637374552 C 0.0 **** -0.24
24027 H 23.763237958352118 55.2031006497603 116.18890895111176 H 0.0 **** 0.06
24028 H 23.629840692152502 54.24404412296653 114.69604734487257 H 0.0 **** 0.06
24029 H 23.175251605672074 55.9648893274493 114.69172620808547 H 0.0 **** 0.06
24030 H 22.159766117462308 54.77812405781066 115.54575583465808 H 0.0 **** 0.06
24031 C 53.4369568703271 106.65488955368818 106.83002025757409 C 0.0 **** -0.24
24032 H 52.409496539879 106.29892853045499 106.90535000513638 H 0.0 **** 0.06
24033 H 53.44963229915701 107.74328586450275 106.88338064075087 H 0.0 **** 0.06
24034 H 53.86316900813646 106.33222196853717 105.87898213057417 H 0.0 **** 0.06
24035 H 54.02548408806242 106.2426498273021 107.64974379916322 H 0.0 **** 0.06
24036 C 100.55560343446166 52.99257428282891 104.18659690611416 C 0.0 **** -0.24
24037 H 100.85990736459435 52.988648213091324 105.23391554781429 H 0.0 **** 0.06
24038 H 99.59118205099423 53.4921267690782 104.0910338273817 H 0.0 **** 0.06
24039 H 100.47016260056955 51.96600947257281 103.83032438924545 H 0.0 **** 0.06
24040 H 101.30139464305206 53.52183386011001 103.59444974355446 H 0.0 **** 0.06
24041 C 100.26369181621615 109.63747582669184 96.0805562694756 C 0.0 **** -0.24
24042 H 101.09823735330819 109.36336202747827 96.72586233739734 H 0.0 **** 0.06
24043 H 100.34612334570751 110.6900525036166 95.80807694018905 H 0.0 **** 0.06
24044 H 99.3258649319221 109.47140021029936 96.61132949760018 H 0.0 **** 0.06
24045 H 100.28509112093874 109.02549758165803 95.179308134103 H 0.0 **** 0.06
24046 C 19.928887756516843 22.654738425741215 0.6289507625996151 C 0.0 **** -0.24
24047 H 20.399655634468957 21.745519207239965 1.001453799738968 H 0.0 **** 0.06
24048 H 20.534928511995048 23.517784301140892 0.907689120079965 H 0.0 **** 0.06
24049 H 18.934515659071053 22.754291795219586 1.0631048365462306 H 0.0 **** 0.06
24050 H 19.84786518418389 22.60270811821053 -0.45753063880931677 H 0.0 **** 0.06
24051 C 25.960533424605273 91.43815388170503 14.758176347005332 C 0.0 **** -0.24
24052 H 26.909810083744503 91.92764715897107 14.974224190039791 H 0.0 **** 0.06
24053 H 25.700218850520343 90.77270190298867 15.581828938415384 H 0.0 **** 0.06
24054 H 26.050360272473256 90.86085021425941 13.838293129019178 H 0.0 **** 0.06
24055 H 25.1817871363441 92.19193877977145 14.63967262147682 H 0.0 **** 0.06
24056 C 80.04404780072502 45.514959325007226 77.82897646921815 C 0.0 **** -0.24
24057 H 80.09543543019498 46.591877259318125 77.98778642048862 H 0.0 **** 0.06
24058 H 80.1289715017053 45.30103868451985 76.76266713979489 H 0.0 **** 0.06
24059 H 79.09062341532086 45.138820065121365 78.20101786306503 H 0.0 **** 0.06
24060 H 80.85956305246997 45.029242584225784 78.36336451934515 H 0.0 **** 0.06
24061 C 66.82555052131275 18.503572179857358 8.056395415649945 C 0.0 **** -0.24
24062 H 67.4011767595162 19.408927058621007 8.252049700667158 H 0.0 **** 0.06
24063 H 66.28920505691286 18.611795114357594 7.113813918703158 H 0.0 **** 0.06
24064 H 66.11295192839651 18.344544013015387 8.865648673010881 H 0.0 **** 0.06
24065 H 67.50216137448837 17.650798182397477 7.994130961557602 H 0.0 **** 0.06
24066 C 45.70178120473389 113.26666397688892 15.709011729795797 C 0.0 **** -0.24
24067 H 44.83079899206038 112.61341099619312 15.762304201097713 H 0.0 **** 0.06
24068 H 46.527224953322204 112.81831638706798 16.261732814728024 H 0.0 **** 0.06
24069 H 45.45590771041917 114.23548831829214 16.143922273697104 H 0.0 **** 0.06
24070 H 45.9916366395847 113.40014137476852 14.666330945859663 H 0.0 **** 0.06
24071 C 25.717270427380356 37.56356934279472 69.17569246124316 C 0.0 **** -0.24
24072 H 26.500323625266446 37.92399750517353 69.84260832493624 H 0.0 **** 0.06
24073 H 25.89695999317695 36.51450876813573 68.9393343480017 H 0.0 **** 0.06
24074 H 25.72449085837684 38.14967631306217 68.25710441555162 H 0.0 **** 0.06
24075 H 24.74913657923895 37.66569428360452 69.66494479344675 H 0.0 **** 0.06
24076 C 29.138759332318386 42.19778465788153 112.48016841095188 C 0.0 **** -0.24
24077 H 28.20860048755435 41.77497350680022 112.10144982441562 H 0.0 **** 0.06
24078 H 29.889906169556298 42.19011262476022 111.6890544881266 H 0.0 **** 0.06
24079 H 29.492158876774283 41.60279449778716 113.32272883363544 H 0.0 **** 0.06
24080 H 28.965504609100606 43.22315009759734 112.8066007337244 H 0.0 **** 0.06
24081 C 62.29110872095697 42.05389023158014 110.91220021818418 C 0.0 **** -0.24
24082 H 62.92592007354119 41.210441112671816 111.18644239173534 H 0.0 **** 0.06
24083 H 62.86746230002126 42.763992549738646 110.31789651604328 H 0.0 **** 0.06
24084 H 61.929913303757644 42.54441710652446 111.81606901791355 H 0.0 **** 0.06
24085 H 61.44271562441702 41.69580530048552 110.32969541580707 H 0.0 **** 0.06
24086 C 34.35733339128865 107.74938793314048 32.937618039589324 C 0.0 **** -0.24
24087 H 34.57383811597043 107.91220942171344 31.88098540665888 H 0.0 **** 0.06
24088 H 33.62702650552271 106.94587293856276 33.03871760903397 H 0.0 **** 0.06
24089 H 33.95375058742678 108.66361065405816 33.37083298842177 H 0.0 **** 0.06
24090 H 35.27485598607885 107.47454685030746 33.45813051172638 H 0.0 **** 0.06
24091 C 76.64099935799544 45.58218984545525 21.645663299192933 C 0.0 **** -0.24
24092 H 76.02670480556719 46.45502729608401 21.427348225563406 H 0.0 **** 0.06
24093 H 76.05685941170879 44.676479605730044 21.481532071787313 H 0.0 **** 0.06
24094 H 76.96818558952873 45.61974569946614 22.68524751611045 H 0.0 **** 0.06
24095 H 77.5121910112311 45.577744472688906 20.99074812522437 H 0.0 **** 0.06
24096 C 26.545023352804748 95.50653631256449 100.01081307362227 C 0.0 **** -0.24
24097 H 27.20094200212219 95.63146040049946 100.87357455323524 H 0.0 **** 0.06
24098 H 25.88002978593954 96.36750989072618 99.93269974154812 H 0.0 **** 0.06
24099 H 25.95386891415569 94.59967316504446 100.13365097547765 H 0.0 **** 0.06
24100 H 27.14762328623104 95.4291393413236 99.10571440739614 H 0.0 **** 0.06
24101 C 95.67635697079481 27.25735857908694 107.95484144933698 C 0.0 **** -0.24
24102 H 95.46016430347316 27.169217870299917 106.89023237146075 H 0.0 **** 0.06
24103 H 95.38237743877716 26.338315171844187 108.4622040672352 H 0.0 **** 0.06
24104 H 95.11949558697222 28.09672278566643 108.3708530582359 H 0.0 **** 0.06
24105 H 96.74472170213096 27.42374115106179 108.09647920607118 H 0.0 **** 0.06
24106 C 98.6123483377946 83.54095478270551 59.25184767399355 C 0.0 **** -0.24
24107 H 99.63067767720896 83.8026680992626 59.53825650302889 H 0.0 **** 0.06
24108 H 98.43096771292312 83.85687920727179 58.224089710424266 H 0.0 **** 0.06
24109 H 97.90753483129687 84.04135754708989 59.91592865726284 H 0.0 **** 0.06
24110 H 98.47959461593308 82.46078239507233 59.32884600388746 H 0.0 **** 0.06
24111 C 94.86781216166094 6.035041502874563 85.56791870966097 C 0.0 **** -0.24
24112 H 95.08744477752913 6.34819923629523 86.58901779904431 H 0.0 **** 0.06
24113 H 93.83643315575375 5.688798307604886 85.50807308158082 H 0.0 **** 0.06
24114 H 95.54008629276552 5.225620043548178 85.28421830523152 H 0.0 **** 0.06
24115 H 95.00842148722433 6.87869759080967 84.89191057335141 H 0.0 **** 0.06
24116 C 46.88137680393173 25.4721127828576 61.63459977456428 C 0.0 **** -0.24
24117 H 45.9376324530104 25.85045085594608 62.025839325378854 H 0.0 **** 0.06
24118 H 47.472815036068276 26.302578437889082 61.24724432034273 H 0.0 **** 0.06
24119 H 46.68347303651494 24.76136702218011 60.83270260242247 H 0.0 **** 0.06
24120 H 47.43244160632658 24.974782713099593 62.433472732074165 H 0.0 **** 0.06
24121 C 89.72767760968928 78.18652448136521 108.69001082506496 C 0.0 **** -0.24
24122 H 90.41146821880244 77.34149397855744 108.60906385597866 H 0.0 **** 0.06
24123 H 89.80522080093003 78.80324319402901 107.79455639169096 H 0.0 **** 0.06
24124 H 89.98649746885793 78.78172650563998 109.56526641102226 H 0.0 **** 0.06
24125 H 88.70654987485855 77.8177112520167 108.79056204002195 H 0.0 **** 0.06
24126 C 43.14233991643357 96.73675120708567 26.229564717269042 C 0.0 **** -0.24
24127 H 43.66424661861092 97.04546881095493 25.323547379985342 H 0.0 **** 0.06
24128 H 43.65106716315569 95.87847545810384 26.667612473979887 H 0.0 **** 0.06
24129 H 42.11685146155807 96.46461092718636 25.98261215139297 H 0.0 **** 0.06
24130 H 43.13797249181658 97.56054594608612 26.944505836600598 H 0.0 **** 0.06
24131 C 37.732249994648726 107.67847328155035 3.625823205283968 C 0.0 **** -0.24
24132 H 37.46826149674496 107.69775158383068 4.683116903574724 H 0.0 **** 0.06
24133 H 36.87125888607122 107.35154494305095 3.0425173289284757 H 0.0 **** 0.06
24134 H 38.56074556932623 106.98805893179039 3.4712444285801567 H 0.0 **** 0.06
24135 H 38.02852455918412 108.67888496459027 3.3085229247603554 H 0.0 **** 0.06
24136 C 62.58872670926719 86.42528087306636 95.04852855517703 C 0.0 **** -0.24
24137 H 61.83225635525618 85.73804646574558 95.42874439373526 H 0.0 **** 0.06
24138 H 63.37748094566511 85.8581376567908 94.55233505622957 H 0.0 **** 0.06
24139 H 63.01401171556719 86.99191372758656 95.87653603916618 H 0.0 **** 0.06
24140 H 62.13118002619221 87.11064061070078 94.3359406338206 H 0.0 **** 0.06
24141 C 37.81515416856854 61.469433220424094 15.920866690602509 C 0.0 **** -0.24
24142 H 38.650882059525486 61.95663638374549 16.42290305344494 H 0.0 **** 0.06
24143 H 37.5802112221688 60.53477838150184 16.428978521726407 H 0.0 **** 0.06
24144 H 38.08563554297248 61.26280065009098 14.884769961409148 H 0.0 **** 0.06
24145 H 36.94479535899404 62.12557711445481 15.944831595776009 H 0.0 **** 0.06
24146 C 13.902029243494429 7.524205189869377 91.79990093335408 C 0.0 **** -0.24
24147 H 14.654278116514632 8.026197560431001 92.40827897467017 H 0.0 **** 0.06
24148 H 13.117716968402934 8.233866333692106 91.53361920401422 H 0.0 **** 0.06
24149 H 13.469126075648475 6.698685289604796 92.36418831627095 H 0.0 **** 0.06
24150 H 14.366522818040622 7.1395929824483915 90.89165661001664 H 0.0 **** 0.06
24151 C 4.009139195714766 45.63116171298877 103.50190417943381 C 0.0 **** -0.24
24152 H 4.7716059491795875 45.62247187270654 102.72312919243367 H 0.0 **** 0.06
24153 H 4.038981599299504 46.58500503336268 104.0293602928698 H 0.0 **** 0.06
24154 H 4.1995205411319745 44.82041952967687 104.20504328453225 H 0.0 **** 0.06
24155 H 3.0264036725306624 45.49584182861085 103.04966861842314 H 0.0 **** 0.06
24156 C 88.10254539299154 110.64819880243608 96.63488716242716 C 0.0 **** -0.24
24157 H 87.2101949741421 110.07316132500885 96.38991345109909 H 0.0 **** 0.06
24158 H 88.77394894141844 110.03766484320847 97.23926300066051 H 0.0 **** 0.06
24159 H 87.8181228236104 111.53903998788456 97.19423704990214 H 0.0 **** 0.06
24160 H 88.60845782162585 110.94310892660006 95.71531486412599 H 0.0 **** 0.06
24161 C 74.76208517600071 76.47496870003249 26.695597498072843 C 0.0 **** -0.24
24162 H 75.25890936522552 77.34938240010518 27.11462720904447 H 0.0 **** 0.06
24163 H 75.2029393242988 76.23534978721932 25.727700820424914 H 0.0 **** 0.06
24164 H 73.70023397792681 76.68498170257931 26.57028555735787 H 0.0 **** 0.06
24165 H 74.88682539914117 75.62815447632056 27.37058424640435 H 0.0 **** 0.06
24166 C 35.28926161819561 55.12161126987077 13.233729464245076 C 0.0 **** -0.24
24167 H 35.8390130515308 54.21290919822166 13.47817872072547 H 0.0 **** 0.06
24168 H 35.92596757524245 55.99002216458193 13.405917319905853 H 0.0 **** 0.06
24169 H 34.4020616657142 55.19089921819051 13.862923362821341 H 0.0 **** 0.06
24170 H 34.989389065657576 55.09334464685875 12.18564260368483 H 0.0 **** 0.06
24171 C 53.10688191943382 110.80942478009374 104.94496242582561 C 0.0 **** -0.24
24172 H 53.11212786120666 109.99037539732834 105.6644317898256 H 0.0 **** 0.06
24173 H 52.23323727435525 110.720000394381 104.29912197941074 H 0.0 **** 0.06
24174 H 54.0132231301435 110.76618690258795 104.33984695861142 H 0.0 **** 0.06
24175 H 53.07036092459384 111.75889198134169 105.47741965807728 H 0.0 **** 0.06
24176 C 75.73760422316667 69.98541562910883 18.814910618948403 C 0.0 **** -0.24
24177 H 75.03233754366775 69.62894470026139 18.064193669135648 H 0.0 **** 0.06
24178 H 76.70869251931282 70.1550819984829 18.34983277817176 H 0.0 **** 0.06
24179 H 75.83713625599637 69.24012871183145 19.60344488268754 H 0.0 **** 0.06
24180 H 75.37115832102123 70.91942618459235 19.241818434534736 H 0.0 **** 0.06
24181 C 10.697884575915594 40.10648498168814 74.65960312372908 C 0.0 **** -0.24
24182 H 10.807992339948044 39.12831333573848 74.19125594876743 H 0.0 **** 0.06
24183 H 9.776367331276447 40.12996613712792 75.24133773727795 H 0.0 **** 0.06
24184 H 10.660557251578552 40.87571948762994 73.88849581719319 H 0.0 **** 0.06
24185 H 11.547325682736187 40.29238252164919 75.31676707391091 H 0.0 **** 0.06
24186 C 42.725049111480445 72.40595993836334 48.175528325680595 C 0.0 **** -0.24
24187 H 42.79013481040374 72.48481581898176 49.26077215176152 H 0.0 **** 0.06
24188 H 43.078165923918334 71.4241036434137 47.86112689860314 H 0.0 **** 0.06
24189 H 43.34328595533677 73.17862613460352 47.718889860273684 H 0.0 **** 0.06
24190 H 41.68841772616037 72.53787185687017 47.864235510652634 H 0.0 **** 0.06
24191 C 111.8840951689993 13.147147636154102 26.467998647760282 C 0.0 **** -0.24
24192 H 111.21792968000139 12.629403746446485 27.158542920980608 H 0.0 **** 0.06
24193 H 111.46347631213447 14.121978415717308 26.21984280547659 H 0.0 **** 0.06
24194 H 111.99392634372222 12.55695289111722 25.558257571675952 H 0.0 **** 0.06
24195 H 112.85989192105609 13.279877632975527 26.934630160681124 H 0.0 **** 0.06
24196 C 1.8077451235124187 1.264884593861197 64.28252779607374 C 0.0 **** -0.24
24197 H 1.496247240641992 0.21996638257671464 64.2637762812796 H 0.0 **** 0.06
24198 H 0.983990354583753 1.8824246245251004 64.6400734941621 H 0.0 **** 0.06
24199 H 2.0871816242524943 1.5786558114168088 63.2762293909675 H 0.0 **** 0.06
24200 H 2.6630889009687735 1.3774624334230907 64.94872131632502 H 0.0 **** 0.06
24201 C 77.44552772822908 69.01092519687548 69.26186549956765 C 0.0 **** -0.24
24202 H 78.13284602223888 68.29211449998206 68.81654509890097 H 0.0 **** 0.06
24203 H 77.48268459765691 68.92523695868393 70.3482266239493 H 0.0 **** 0.06
24204 H 76.43208723769567 68.80782276753145 68.91637844470185 H 0.0 **** 0.06
24205 H 77.73463011595601 70.01961172565915 68.96720834978123 H 0.0 **** 0.06
24206 C 66.12595672091851 19.223293737426445 29.11933027712709 C 0.0 **** -0.24
24207 H 66.41332462609779 20.23136673859551 29.419235431226213 H 0.0 **** 0.06
24208 H 65.62887175225023 18.72358789706624 29.951302158180134 H 0.0 **** 0.06
24209 H 67.01545656260907 18.66046172486159 28.83560552776303 H 0.0 **** 0.06
24210 H 65.44473906316108 19.278661871842132 28.26972008688093 H 0.0 **** 0.06
24211 C 93.95659451901031 49.28840974862641 54.64466676644101 C 0.0 **** -0.24
24212 H 93.57660953561168 50.06901851114853 53.98546805848146 H 0.0 **** 0.06
24213 H 94.16380876976291 49.71096737995978 55.62797947018089 H 0.0 **** 0.06
24214 H 94.87480643741998 48.876268924981616 54.225965943895716 H 0.0 **** 0.06
24215 H 93.21205522315199 48.497744599219544 54.737819416777086 H 0.0 **** 0.06
24216 C 107.90127443932545 10.025891047697055 5.341574455610555 C 0.0 **** -0.24
24217 H 107.16036344008336 10.001227717481509 6.140604592724827 H 0.0 **** 0.06
24218 H 107.40444867777072 10.22093583008936 4.391972346571293 H 0.0 **** 0.06
24219 H 108.41493394977643 9.065459041043887 5.293451177920019 H 0.0 **** 0.06
24220 H 108.62497099325628 10.816029168969276 5.542687916025244 H 0.0 **** 0.06
24221 C 93.4204930238884 35.55664884262265 39.430105356192485 C 0.0 **** -0.24
24222 H 92.71725106408458 35.444732252743165 38.604526766111405 H 0.0 **** 0.06
24223 H 94.29929140506997 36.10396970938751 39.08736070280486 H 0.0 **** 0.06
24224 H 93.72247770470607 34.57128835181069 39.78614826790135 H 0.0 **** 0.06
24225 H 92.94401075291027 36.105325722008104 40.24189339721477 H 0.0 **** 0.06
24226 C 78.5405827848769 46.36651158426459 106.06541021246157 C 0.0 **** -0.24
24227 H 77.92600466822537 45.55840453500782 105.66981289119731 H 0.0 **** 0.06
24228 H 78.2210124445748 46.601378630134924 107.08168278216687 H 0.0 **** 0.06
24229 H 78.4307670147241 47.24967192794161 105.43554205497652 H 0.0 **** 0.06
24230 H 79.58597342857291 46.055912292711966 106.07618572859762 H 0.0 **** 0.06
24231 C 0.9419209780885609 48.3303801339856 85.68820949666991 C 0.0 **** -0.24
24232 H 0.32653398818095525 48.01780435760322 86.53169084046327 H 0.0 **** 0.06
24233 H 0.7121132494572038 49.366584883239945 85.4366050884907 H 0.0 **** 0.06
24234 H 0.7310527289842099 47.69279754336812 84.82997960698262 H 0.0 **** 0.06
24235 H 1.9944644096887316 48.24560040296816 85.95465866277502 H 0.0 **** 0.06
24236 C 8.010243670517601 84.47692703183631 71.09521375394553 C 0.0 **** -0.24
24237 H 7.440395132007344 84.72358715802213 70.19923998602519 H 0.0 **** 0.06
24238 H 7.89121280834075 85.2721652304255 71.83124936985081 H 0.0 **** 0.06
24239 H 9.064583092482362 84.37488307471658 70.83744449619167 H 0.0 **** 0.06
24240 H 7.645742200087703 83.53771906146027 71.51033972889522 H 0.0 **** 0.06
24241 C 50.65587863351877 18.03457674088196 3.7562874926559857 C 0.0 **** -0.24
24242 H 50.913301595426375 17.582005816105777 4.714052363491646 H 0.0 **** 0.06
24243 H 51.04060316259341 19.05385340205737 3.7212491932457965 H 0.0 **** 0.06
24244 H 49.5723384547812 18.050147138267846 3.641916355661351 H 0.0 **** 0.06
24245 H 51.09833430325517 17.45034929642253 2.948962978752945 H 0.0 **** 0.06
24246 C 5.002129762785415 82.78088832014801 21.280901995472647 C 0.0 **** -0.24
24247 H 6.088332645622003 82.69752917468497 21.330015808003196 H 0.0 **** 0.06
24248 H 4.732582755964856 83.68787977181451 20.738311392607443 H 0.0 **** 0.06
24249 H 4.5960542113181475 82.8262690734331 22.29153140367069 H 0.0 **** 0.06
24250 H 4.594236972009853 81.91288937665821 20.762883789534015 H 0.0 **** 0.06
24251 C 96.04962581764457 107.21561849846348 96.03899630740219 C 0.0 **** -0.24
24252 H 95.97883425052243 106.13205413356431 95.94944006392161 H 0.0 **** 0.06
24253 H 95.75339020789684 107.51656885181413 97.0441788467922 H 0.0 **** 0.06
24254 H 95.39013733429042 107.68505982669276 95.30958744379687 H 0.0 **** 0.06
24255 H 97.07746668365407 107.52928124293982 95.85451206695112 H 0.0 **** 0.06
24256 C 0.3261272619839719 4.659612400203088 39.83245858190332 C 0.0 **** -0.24
24257 H 0.8437487951557667 4.404971795921483 40.75711129806545 H 0.0 **** 0.06
24258 H 0.5516048405973457 5.692042309526045 39.56196458701301 H 0.0 **** 0.06
24259 H -0.7484864053863722 4.547362660728453 39.97501732112693 H 0.0 **** 0.06
24260 H 0.6585656769629278 3.9943888843108084 39.03552512769078 H 0.0 **** 0.06
24261 C 51.41905360974255 109.40437162099278 16.254821147865528 C 0.0 **** -0.24
24262 H 52.39117846816231 109.24562720722668 16.722567956164625 H 0.0 **** 0.06
24263 H 51.53671963678505 110.04974922735516 15.384169655102113 H 0.0 **** 0.06
24264 H 50.74511713349236 109.87744693091116 16.969365728369496 H 0.0 **** 0.06
24265 H 51.00568207394829 108.44570120879757 15.944051977371828 H 0.0 **** 0.06
24266 C 13.406887286859757 96.39795925672244 91.88151666680562 C 0.0 **** -0.24
24267 H 14.242254886192143 96.52735441673344 91.19348221029355 H 0.0 **** 0.06
24268 H 12.469285149820962 96.54619509232334 91.34440400938847 H 0.0 **** 0.06
24269 H 13.483212637005806 97.1277444043677 92.68740351981704 H 0.0 **** 0.06
24270 H 13.432765991897526 95.39080577041669 92.29796080680295 H 0.0 **** 0.06
24271 C 57.821392914067474 85.45236253555082 67.17528090223942 C 0.0 **** -0.24
24272 H 57.07940681471062 85.50928366255523 67.97185806741294 H 0.0 **** 0.06
24273 H 58.089338087161494 84.40870591137185 67.00269775574208 H 0.0 **** 0.06
24274 H 58.71030493793175 86.0119485541835 67.46616996217978 H 0.0 **** 0.06
24275 H 57.40724918981931 85.87673896776803 66.26206568679709 H 0.0 **** 0.06
24276 C 88.50582876289428 72.91213961119064 109.90362117829889 C 0.0 **** -0.24
24277 H 88.77331386803647 72.17214222735046 109.14979884896897 H 0.0 **** 0.06
24278 H 89.23525011060269 72.88663359797545 110.71305893573206 H 0.0 **** 0.06
24279 H 87.51538948587802 72.68614878617598 110.29943777013189 H 0.0 **** 0.06
24280 H 88.49843804414164 73.90428587475662 109.4513394383557 H 0.0 **** 0.06
24281 C 30.608319981835166 109.13563912735087 20.65383340918821 C 0.0 **** -0.24
24282 H 31.357008906186536 109.84877214257425 20.997290381467593 H 0.0 **** 0.06
24283 H 30.017114430661138 108.79240408545088 21.504099473777657 H 0.0 **** 0.06
24284 H 31.103948537939004 108.28519248237295 20.18728726403819 H 0.0 **** 0.06
24285 H 29.95376040482995 109.61828710456734 19.92823694272272 H 0.0 **** 0.06
24286 C 84.9195641201049 39.08244291141621 71.69468551208092 C 0.0 **** -0.24
24287 H 85.67476234155646 39.13463596176696 70.90984595000538 H 0.0 **** 0.06
24288 H 84.30149259475564 38.19740762246633 71.54608995379226 H 0.0 **** 0.06
24289 H 84.29398794471842 39.97434997828387 71.65531796785442 H 0.0 **** 0.06
24290 H 85.40970241937447 39.02563759306281 72.66605881645847 H 0.0 **** 0.06
24291 C 96.02192006231425 108.94466709517104 102.53664326805561 C 0.0 **** -0.24
24292 H 96.90938748204208 108.38636723765785 102.23823848290431 H 0.0 **** 0.06
24293 H 96.3216272870307 109.83536551163584 103.08893709369242 H 0.0 **** 0.06
24294 H 95.39539866809947 108.31739350425912 103.1707949388252 H 0.0 **** 0.06
24295 H 95.46200193784853 109.23837190691847 101.64890303723101 H 0.0 **** 0.06
24296 C 56.693358405873084 40.18499726091437 100.41536664791514 C 0.0 **** -0.24
24297 H 57.767114654071946 40.23309754085062 100.23161548622278 H 0.0 **** 0.06
24298 H 56.51504969368233 39.95072525824696 101.46574291007188 H 0.0 **** 0.06
24299 H 56.25172732287393 39.4094969036164 99.79007335810618 H 0.0 **** 0.06
24300 H 56.24094370744646 41.14752302793306 100.17585325519475 H 0.0 **** 0.06
24301 C 104.27984665086036 75.70382154311777 39.40905025513885 C 0.0 **** -0.24
24302 H 105.04136905456939 76.23371439702036 38.83756298444948 H 0.0 **** 0.06
24303 H 103.83855213509598 74.9230646513699 38.788473542405605 H 0.0 **** 0.06
24304 H 103.50471253327258 76.40445633713757 39.71766405033016 H 0.0 **** 0.06
24305 H 104.73536288070405 75.25280822205394 40.29047948482918 H 0.0 **** 0.06
24306 C 29.590870272068287 13.343616769066216 30.930124548271635 C 0.0 **** -0.24
24307 H 30.117594609476555 14.142662203584877 31.451140266277434 H 0.0 **** 0.06
24308 H 29.15241456028002 13.735919812552567 30.011816026694476 H 0.0 **** 0.06
24309 H 28.800579369265108 12.952696774129933 31.5720166533917 H 0.0 **** 0.06
24310 H 30.29063144763566 12.544661627364647 30.686835665150852 H 0.0 **** 0.06
24311 C 107.33165962955525 94.00662638003917 48.49915653756722 C 0.0 **** -0.24
24312 H 107.46306519494536 94.93013786719695 49.062687940595595 H 0.0 **** 0.06
24313 H 108.10552789555084 93.29341468187323 48.782771642379885 H 0.0 **** 0.06
24314 H 107.40616628279975 94.21910266104487 47.43171227283642 H 0.0 **** 0.06
24315 H 106.35022752436129 93.58524301669723 48.71693772076097 H 0.0 **** 0.06
24316 C 9.606505533400451 98.7735920978746 82.173224929957 C 0.0 **** -0.24
24317 H 9.950717298713016 99.62337563056082 82.76323323298223 H 0.0 **** 0.06
24318 H 10.45969791535255 98.15094859745768 81.90166746510721 H 0.0 **** 0.06
24319 H 9.115989967133089 99.13337229678841 81.26870779506723 H 0.0 **** 0.06
24320 H 8.90007760376001 98.18627698431453 82.76008616383726 H 0.0 **** 0.06
24321 C 39.51162474198833 77.63257182617889 101.43318101263867 C 0.0 **** -0.24
24322 H 40.351848407880254 78.05018457113675 101.98828223226087 H 0.0 **** 0.06
24323 H 39.7965119651368 77.50343544044443 100.38868608295792 H 0.0 **** 0.06
24324 H 38.660941835264 78.311111787154 101.4969828175868 H 0.0 **** 0.06
24325 H 39.23856265075983 76.66732535735258 101.85882037264497 H 0.0 **** 0.06
24326 C 110.47135939714806 22.311652392817336 78.62690657369058 C 0.0 **** -0.24
24327 H 110.3915124667177 21.248574534082792 78.85201640444473 H 0.0 **** 0.06
24328 H 110.09696036324343 22.891019805663802 79.47128347940509 H 0.0 **** 0.06
24329 H 109.88138808300167 22.540127671842356 77.73848295144364 H 0.0 **** 0.06
24330 H 111.51515532850385 22.56697163452492 78.44494043406394 H 0.0 **** 0.06
24331 C 38.35802968315617 96.46213691820896 66.42142016876915 C 0.0 **** -0.24
24332 H 38.125475562039725 97.49396434770249 66.68495251230087 H 0.0 **** 0.06
24333 H 39.23473525495213 96.13425937718453 66.97980731206849 H 0.0 **** 0.06
24334 H 38.56257590963939 96.398363860753 65.35289250548527 H 0.0 **** 0.06
24335 H 37.50944839569089 95.8248743584878 66.66873118804347 H 0.0 **** 0.06
24336 C 94.08398136119752 36.6418385650947 10.687856051355766 C 0.0 **** -0.24
24337 H 93.38873625910225 37.37197919751841 11.10258425145068 H 0.0 **** 0.06
24338 H 94.5883986099301 37.07024300274078 9.822712516089098 H 0.0 **** 0.06
24339 H 93.53465662588997 35.75043337384527 10.384356965090092 H 0.0 **** 0.06
24340 H 94.82194681861944 36.37291202230541 11.444225077615329 H 0.0 **** 0.06
24341 C 56.18216025858794 102.40843058762157 83.12440030686554 C 0.0 **** -0.24
24342 H 55.88269899582701 103.17637735252163 83.83872891645137 H 0.0 **** 0.06
24343 H 56.53053799057926 102.8819294114374 82.20668991987935 H 0.0 **** 0.06
24344 H 55.328441216569956 101.76827074731416 82.90165888968397 H 0.0 **** 0.06
24345 H 56.984309435256876 101.80872972761223 83.55238047667848 H 0.0 **** 0.06
24346 C 7.219766026984573 24.914803225779394 49.38578342574301 C 0.0 **** -0.24
24347 H 6.853862787269874 24.02415385769433 48.874729525794244 H 0.0 **** 0.06
24348 H 6.46656220105157 25.701670797593692 49.32940024149905 H 0.0 **** 0.06
24349 H 8.138110789751412 25.255708651293162 48.90768307583146 H 0.0 **** 0.06
24350 H 7.42072755803043 24.678325236284422 50.43007845444724 H 0.0 **** 0.06
24351 C 95.94757332568777 14.142845700457059 76.92104663143652 C 0.0 **** -0.24
24352 H 96.58604303000412 14.65452178935476 76.20153463230793 H 0.0 **** 0.06
24353 H 96.47769492407936 13.283087836690669 77.32982164981541 H 0.0 **** 0.06
24354 H 95.03762198102375 13.805836039322003 76.42389209855247 H 0.0 **** 0.06
24355 H 95.68825241601179 14.82782566270933 77.72821431129137 H 0.0 **** 0.06
24356 C 55.08921816284488 54.022662137489306 79.62677663727274 C 0.0 **** -0.24
24357 H 54.95959148162897 53.279535634843796 80.4124523831937 H 0.0 **** 0.06
24358 H 54.163741183210384 54.113431621108134 79.05636982689808 H 0.0 **** 0.06
24359 H 55.896141678267014 53.71229952045252 78.96213680808353 H 0.0 **** 0.06
24360 H 55.336872268923734 54.985239096491284 80.07375937953184 H 0.0 **** 0.06
24361 C 54.24682676084631 59.29632040246139 4.915136102885128 C 0.0 **** -0.24
24362 H 55.06401010755746 58.57690181464392 4.853810048692111 H 0.0 **** 0.06
24363 H 54.37664214308563 60.05889317181425 4.146758376593283 H 0.0 **** 0.06
24364 H 54.250970182443154 59.766430626815975 5.898231585910622 H 0.0 **** 0.06
24365 H 53.298005821765145 58.78244915605018 4.7622384277566425 H 0.0 **** 0.06
24366 C 88.05834633535522 16.932698047809566 66.99254405425935 C 0.0 **** -0.24
24367 H 87.4692723580273 17.38309991933889 67.79103670982009 H 0.0 **** 0.06
24368 H 87.44276028877988 16.218810284905118 66.44544842861559 H 0.0 **** 0.06
24369 H 88.9184159351716 16.418722202599582 67.42126032943824 H 0.0 **** 0.06
24370 H 88.40186340460622 17.712354103152705 66.31224849726053 H 0.0 **** 0.06
24371 C 45.528305267619494 39.60502768179771 68.77000193100304 C 0.0 **** -0.24
24372 H 45.10541533118822 38.96214416302723 67.99737427607766 H 0.0 **** 0.06
24373 H 44.769147971693585 39.8131167916257 69.52437101185814 H 0.0 **** 0.06
24374 H 45.86152813342536 40.54031873515845 68.3209287904429 H 0.0 **** 0.06
24375 H 46.37610737072934 39.10277203189855 69.23640565776537 H 0.0 **** 0.06
24376 C 111.02098611747869 72.73183398634563 24.145753847780938 C 0.0 **** -0.24
24377 H 111.08861188287972 72.26963181384218 25.130824651437322 H 0.0 **** 0.06
24378 H 111.38393114828341 73.75839478045577 24.199840965400085 H 0.0 **** 0.06
24379 H 109.98209504201424 72.73071282016974 23.814450837318326 H 0.0 **** 0.06
24380 H 111.62860551986557 72.16796236668938 23.43757234209972 H 0.0 **** 0.06
24381 C 72.98408304080924 29.928535444875237 9.23319020203138 C 0.0 **** -0.24
24382 H 73.55220577857615 29.02865162810491 9.472798906524929 H 0.0 **** 0.06
24383 H 73.64006932959487 30.796766594875294 9.286276437029017 H 0.0 **** 0.06
24384 H 72.1694493073611 30.043843578066785 9.947535649506904 H 0.0 **** 0.06
24385 H 72.57543711279479 29.842018904246288 8.226506072954976 H 0.0 **** 0.06
24386 C 3.597164996275694 47.60072155446619 27.129152222453612 C 0.0 **** -0.24
24387 H 4.63580413441413 47.28618940671453 27.030893479990056 H 0.0 **** 0.06
24388 H 3.1132947831933677 47.015892402337755 27.91210055674827 H 0.0 **** 0.06
24389 H 3.07870152027391 47.44120366773484 26.183643772139092 H 0.0 **** 0.06
24390 H 3.561181596689707 48.65866891614516 27.38980361960614 H 0.0 **** 0.06
24391 C 36.35589372978265 105.7240981575691 10.088317417189884 C 0.0 **** -0.24
24392 H 35.59988533604587 105.76205938582291 10.871823471974452 H 0.0 **** 0.06
24393 H 37.08445648685455 106.52029286176116 10.247816551013685 H 0.0 **** 0.06
24394 H 35.87948845913999 105.85686863427976 9.116760112590413 H 0.0 **** 0.06
24395 H 36.860819524343896 104.7580259098783 10.116530211348845 H 0.0 **** 0.06
24396 C 14.84051286809418 111.5682010727073 69.18194694871906 C 0.0 **** -0.24
24397 H 14.163671657298238 112.3354399249102 68.80648582878115 H 0.0 **** 0.06
24398 H 14.668784246951944 111.42250949923353 70.24761326667836 H 0.0 **** 0.06
24399 H 15.871413115911473 111.88323687871012 69.01821327951235 H 0.0 **** 0.06
24400 H 14.658833350682002 110.63303402053278 68.65207365873565 H 0.0 **** 0.06
24401 C 59.95544525449145 92.71690758444748 106.58153050347468 C 0.0 **** -0.24
24402 H 60.59852007872718 92.4679651829851 107.4252502224956 H 0.0 **** 0.06
24403 H 59.36767835929709 91.84191865348538 106.30134112851987 H 0.0 **** 0.06
24404 H 60.5701440964811 93.02896640246112 105.73686239360296 H 0.0 **** 0.06
24405 H 59.28591797580441 93.52983705995265 106.86347637450926 H 0.0 **** 0.06
24406 C 67.6473837026428 39.71531687010702 92.2597732340828 C 0.0 **** -0.24
24407 H 68.28744205151551 38.83339089101915 92.22046059767248 H 0.0 **** 0.06
24408 H 67.13005542910028 39.83133568935469 91.30583622637815 H 0.0 **** 0.06
24409 H 68.25620187051726 40.59873515230896 92.45205721386552 H 0.0 **** 0.06
24410 H 66.91498664602284 39.59680192205272 93.05804216677765 H 0.0 **** 0.06
24411 C 115.32338014601213 88.2307992139986 102.82476846738024 C 0.0 **** -0.24
24412 H 116.30138753241454 88.62578503056861 102.54881676369075 H 0.0 **** 0.06
24413 H 114.78183095114056 88.97632774990159 103.40751391668653 H 0.0 **** 0.06
24414 H 115.4515167377657 87.32673736946421 103.4199539367832 H 0.0 **** 0.06
24415 H 114.75878536272762 87.99434670606023 101.92278925236045 H 0.0 **** 0.06
24416 C 79.84434028439861 4.980930446356325 91.2368357377415 C 0.0 **** -0.24
24417 H 80.17423320373318 4.571700228873468 92.19208171878273 H 0.0 **** 0.06
24418 H 79.9412451946287 6.06707663570873 91.25507097052218 H 0.0 **** 0.06
24419 H 78.80268433040555 4.710449752569147 91.06659012084404 H 0.0 **** 0.06
24420 H 80.46227362155723 4.574443750918874 90.43573115442331 H 0.0 **** 0.06
24421 C 10.506560214955641 1.4815781152377383 94.23002710009176 C 0.0 **** -0.24
24422 H 11.038642957540617 2.3084577487341846 93.75869851885439 H 0.0 **** 0.06
24423 H 10.07144595168785 0.8446169380255242 93.46013842502704 H 0.0 **** 0.06
24424 H 9.714991945916267 1.876392349994802 94.86671771123605 H 0.0 **** 0.06
24425 H 11.202120345236096 0.8996871724231426 94.83460594473505 H 0.0 **** 0.06
24426 C 4.87588222719441 47.94370984802603 37.61718082894697 C 0.0 **** -0.24
24427 H 4.121320772193059 48.71600395473146 37.461989080162596 H 0.0 **** 0.06
24428 H 4.384282892662242 46.98126983344331 37.763197724508416 H 0.0 **** 0.06
24429 H 5.468843108019755 48.18687178474485 38.499293782698885 H 0.0 **** 0.06
24430 H 5.526493830738403 47.89181613189476 36.74444655543624 H 0.0 **** 0.06
24431 C 93.77397794782826 22.336019625138505 78.98129729331876 C 0.0 **** -0.24
24432 H 94.06897556669063 23.30624417424596 78.57986066897078 H 0.0 **** 0.06
24433 H 94.30118248195578 21.54632281036689 78.44570426458097 H 0.0 **** 0.06
24434 H 92.69878443076232 22.203818211735893 78.85957936357852 H 0.0 **** 0.06
24435 H 94.02788729346446 22.289962166750428 80.04014444410464 H 0.0 **** 0.06
24436 C 89.83880884458841 46.774833786813645 71.21712363454802 C 0.0 **** -0.24
24437 H 89.03827718253086 47.27160069005586 70.66829825447513 H 0.0 **** 0.06
24438 H 89.45447210977831 45.86120812394472 71.67026263878924 H 0.0 **** 0.06
24439 H 90.21036226727759 47.4393018655029 71.99760862229908 H 0.0 **** 0.06
24440 H 90.6500613494403 46.52853491363845 70.53249617468387 H 0.0 **** 0.06
24441 C 67.75759802040925 109.92817227159613 57.71578658646301 C 0.0 **** -0.24
24442 H 67.69521574405867 110.05747740383413 58.79639299073709 H 0.0 **** 0.06
24443 H 66.8756280120247 109.39155465767051 57.36346556742103 H 0.0 **** 0.06
24444 H 68.65264984352686 109.35861391328785 57.468758297482694 H 0.0 **** 0.06
24445 H 67.80374611358087 110.90580866926143 57.235220229033686 H 0.0 **** 0.06
24446 C 96.38360844005288 75.4201566108683 14.205728508752372 C 0.0 **** -0.24
24447 H 95.8865699276854 75.28535632769717 13.24455463778827 H 0.0 **** 0.06
24448 H 96.490216922775 74.45320045720217 14.69730960869802 H 0.0 **** 0.06
24449 H 95.78921609868206 76.08395100187693 14.832186174407582 H 0.0 **** 0.06
24450 H 97.36956307268619 75.85768204849717 14.045324101016291 H 0.0 **** 0.06
24451 C 1.7567633076797282 63.66724968192311 22.436137341337485 C 0.0 **** -0.24
24452 H 1.1443493323458647 62.767978618797656 22.3683343526165 H 0.0 **** 0.06
24453 H 1.4824851848828668 64.22776834035108 23.329771994194402 H 0.0 **** 0.06
24454 H 1.5924265813188558 64.28591524556894 21.55406087165366 H 0.0 **** 0.06
24455 H 2.808625447964241 63.38678421743866 22.49235764694751 H 0.0 **** 0.06
24456 C 45.39304685668735 106.27209647208076 52.620834395141515 C 0.0 **** -0.24
24457 H 44.60562085512983 107.00667413544608 52.45241379842298 H 0.0 **** 0.06
24458 H 46.36413283935657 106.76738574095853 52.590948417725144 H 0.0 **** 0.06
24459 H 45.34951857495346 105.50893720437534 51.84348903967765 H 0.0 **** 0.06
24460 H 45.25238940932565 105.80575912541212 53.597252164537565 H 0.0 **** 0.06
24461 C 16.493443123644795 38.38662837693664 22.731682466132725 C 0.0 **** -0.24
24462 H 17.518182561010633 38.31956873021903 22.366741889481883 H 0.0 **** 0.06
24463 H 16.00434186639643 37.41737519921253 22.62169181465255 H 0.0 **** 0.06
24464 H 15.950000139921485 39.13524320141494 22.15429595733398 H 0.0 **** 0.06
24465 H 16.499105910914977 38.673536265208895 23.783112604782513 H 0.0 **** 0.06
24466 C 6.094918231034143 104.36315209116118 108.29415864897334 C 0.0 **** -0.24
24467 H 6.475816950746861 103.34482438321535 108.38118443016572 H 0.0 **** 0.06
24468 H 5.844509407197492 104.74249885622095 109.28427022865341 H 0.0 **** 0.06
24469 H 5.204259065504971 104.36483435756529 107.66705189084058 H 0.0 **** 0.06
24470 H 6.858226200038899 104.99802803924838 107.84299671066867 H 0.0 **** 0.06
24471 C 114.15522199579456 31.436132540504957 20.168349102249095 C 0.0 **** -0.24
24472 H 114.97290205660147 31.15610886483728 20.832566400136884 H 0.0 **** 0.06
24473 H 113.67034633565133 30.535884982853418 19.790680612857358 H 0.0 **** 0.06
24474 H 114.54863374446077 32.01509239434915 19.333096918790318 H 0.0 **** 0.06
24475 H 113.43086670497367 32.03707579323486 20.71823652645881 H 0.0 **** 0.06
24476 C 4.248285755417886 113.08953105756734 97.6513838812707 C 0.0 **** -0.24
24477 H 3.9144531181533146 113.58680706297737 98.56247001268005 H 0.0 **** 0.06
24478 H 4.076718103649249 113.74453507892669 96.79617693201487 H 0.0 **** 0.06
24479 H 3.6894205651367926 112.16332109980122 97.51765891749258 H 0.0 **** 0.06
24480 H 5.311403587528572 112.86532472684145 97.72968756008859 H 0.0 **** 0.06
24481 C 27.25082107233888 78.32816571170673 99.5247709017623 C 0.0 **** -0.24
24482 H 27.206194699263477 77.2485976057599 99.38328694512703 H 0.0 **** 0.06
24483 H 26.623291322661714 78.81857704053525 98.78064746370312 H 0.0 **** 0.06
24484 H 28.280815695258838 78.6663722599277 99.41298117641293 H 0.0 **** 0.06
24485 H 26.89266327768769 78.57757426800293 100.52404462453318 H 0.0 **** 0.06
24486 C 91.73025311648806 66.06332082230404 95.1199722897064 C 0.0 **** -0.24
24487 H 90.98049687827745 65.98948217316718 95.90845885220409 H 0.0 **** 0.06
24488 H 91.3840672831557 66.75789588177963 94.35405815925014 H 0.0 **** 0.06
24489 H 91.88768397844072 65.08054187714225 94.67552361233146 H 0.0 **** 0.06
24490 H 92.66695419069345 66.42494150276553 95.54420352135486 H 0.0 **** 0.06
24491 C 7.520862246060091 67.67450813454042 65.46044423502337 C 0.0 **** -0.24
24492 H 6.905621259008882 66.80206164027987 65.24239573813378 H 0.0 **** 0.06
24493 H 8.567558203781829 67.37433045291414 65.52480713909196 H 0.0 **** 0.06
24494 H 7.208507964933915 68.11152755714886 66.40869017347626 H 0.0 **** 0.06
24495 H 7.402367372676281 68.4106103192519 64.66470674773763 H 0.0 **** 0.06
24496 C 112.2410960430525 59.636237056804134 89.90239251386511 C 0.0 **** -0.24
24497 H 112.36992015732838 59.88941426999088 88.8506619741524 H 0.0 **** 0.06
24498 H 111.80956051006591 58.63876472131224 89.98644360287375 H 0.0 **** 0.06
24499 H 111.57516941571402 60.3609608200417 90.37162357766394 H 0.0 **** 0.06
24500 H 113.20998527299508 59.65701817758074 90.4020548010317 H 0.0 **** 0.06
24501 C 18.843059522405213 49.902542183996445 17.363401300189196 C 0.0 **** -0.24
24502 H 18.134250587741462 49.37648923185364 18.002970487078585 H 0.0 **** 0.06
24503 H 19.669473483651245 49.23653197425463 17.11319143229622 H 0.0 **** 0.06
24504 H 19.226149449577377 50.777073369844345 17.887939942484252 H 0.0 **** 0.06
24505 H 18.341103606832064 50.21747207665476 16.448703558214646 H 0.0 **** 0.06
24506 C 114.7302284142998 57.97938157737346 47.809433953259855 C 0.0 **** -0.24
24507 H 114.3764135270194 58.34637865879125 48.773052519221466 H 0.0 **** 0.06
24508 H 115.28067610622105 58.76985828362382 47.298727088617056 H 0.0 **** 0.06
24509 H 113.87772945198714 57.677167906181296 47.201045116026904 H 0.0 **** 0.06
24510 H 115.38654508451543 57.12213065440778 47.965824331901445 H 0.0 **** 0.06
24511 C 92.25327488657062 97.70560367587939 58.34829169846927 C 0.0 **** -0.24
24512 H 91.36049451617856 98.06659439148078 58.860742256262995 H 0.0 **** 0.06
24513 H 92.012183894812 96.79634143789377 57.79791559706439 H 0.0 **** 0.06
24514 H 93.03106312489673 97.49238355190516 59.08093222198781 H 0.0 **** 0.06
24515 H 92.60682190321886 98.46868053948378 57.65501054984827 H 0.0 **** 0.06
24516 C 41.32836529443858 86.59775425940953 63.850928992655014 C 0.0 **** -0.24
24517 H 42.17735970487246 87.1161196781469 64.29711097858203 H 0.0 **** 0.06
24518 H 40.490925179969764 86.60444661403363 64.55001906804017 H 0.0 **** 0.06
24519 H 41.60765895437328 85.5681362778605 63.62810754244461 H 0.0 **** 0.06
24520 H 41.036881710880834 87.10263314453968 62.92970089380714 H 0.0 **** 0.06
24521 C 75.56085037574225 86.12816499009679 27.554691945293428 C 0.0 **** -0.24
24522 H 74.78688142092271 86.88329596825245 27.41683032737717 H 0.0 **** 0.06
24523 H 75.13483285492573 85.13747635531901 27.39456173858082 H 0.0 **** 0.06
24524 H 75.95571235694752 86.19428824410751 28.569015534801707 H 0.0 **** 0.06
24525 H 76.36631119996174 86.29876892503604 26.839947411920605 H 0.0 **** 0.06
24526 C 92.5348391721031 13.730759026945293 31.89771784811137 C 0.0 **** -0.24
24527 H 93.3457701594575 14.006158684856928 31.22371451326967 H 0.0 **** 0.06
24528 H 91.68571183669026 13.370194499657856 31.315311920529098 H 0.0 **** 0.06
24529 H 92.23429831910546 14.602150955073284 32.478570494575195 H 0.0 **** 0.06
24530 H 92.87374393465169 12.944104973525782 32.57086823468248 H 0.0 **** 0.06
24531 C 101.31100283265391 109.23843689862503 13.236393653545129 C 0.0 **** -0.24
24532 H 100.68039736175245 108.38624749526417 13.488176235323746 H 0.0 **** 0.06
24533 H 100.68406655701835 110.08469203210666 12.957179299069693 H 0.0 **** 0.06
24534 H 101.96007008008422 108.9749781928179 12.40062165356371 H 0.0 **** 0.06
24535 H 101.92091051802436 109.50612335850207 14.099412858522637 H 0.0 **** 0.06
24536 C 101.28834566473188 62.771016441070984 112.83623950189387 C 0.0 **** -0.24
24537 H 101.12312271662157 63.52167100126678 113.60870544138065 H 0.0 **** 0.06
24538 H 102.34205572154832 62.76200759739113 112.55835556430131 H 0.0 **** 0.06
24539 H 100.68255615942249 63.01120944583295 111.961846561429 H 0.0 **** 0.06
24540 H 101.00359458351329 61.79036736321595 113.21665733298704 H 0.0 **** 0.06
24541 C 12.252884611203193 31.70466293763684 103.09693394873867 C 0.0 **** -0.24
24542 H 12.837846692117004 30.935169636321064 103.60210724251739 H 0.0 **** 0.06
24543 H 11.223333439264309 31.362505872182112 102.98510567190306 H 0.0 **** 0.06
24544 H 12.680607744999499 31.89923765831304 102.11360128226805 H 0.0 **** 0.06
24545 H 12.270166793919387 32.62006062043639 103.68833986475508 H 0.0 **** 0.06
24546 C 85.25234761490259 111.2216733261638 99.11115350550054 C 0.0 **** -0.24
24547 H 85.39903819320494 110.60050036505035 98.2274320595044 H 0.0 **** 0.06
24548 H 84.47574336108414 110.78414597336874 99.73803560751799 H 0.0 **** 0.06
24549 H 84.95068006032284 112.22309249189837 98.80400712395874 H 0.0 **** 0.06
24550 H 86.1849919506381 111.27943998814217 99.6732328294224 H 0.0 **** 0.06
24551 C 110.17079491087361 10.534904839552595 2.304777637889572 C 0.0 **** -0.24
24552 H 109.17104358101435 10.122134595512236 2.172476778322391 H 0.0 **** 0.06
24553 H 110.87948617064528 9.969130701532066 1.6993481028514168 H 0.0 **** 0.06
24554 H 110.45559617287205 10.469372880162837 3.3540508433412413 H 0.0 **** 0.06
24555 H 110.17658291397416 11.578538266268339 1.9901392272918486 H 0.0 **** 0.06
24556 C 108.93969272267964 62.111604939440724 28.399424894362426 C 0.0 **** -0.24
24557 H 108.53911260452796 61.96735696981841 29.402099598600643 H 0.0 **** 0.06
24558 H 109.5756644552346 61.26512526705196 28.13689722639424 H 0.0 **** 0.06
24559 H 109.52770479008947 63.029269896707575 28.372177550521428 H 0.0 **** 0.06
24560 H 108.11859247097723 62.18385164918317 27.686694717989468 H 0.0 **** 0.06
24561 C 80.4669846741902 71.93699927130874 27.034469579237395 C 0.0 **** -0.24
24562 H 80.4723350777096 70.94677812155726 26.57963998034583 H 0.0 **** 0.06
24563 H 79.55681515689008 72.06093584306342 27.623167173040713 H 0.0 **** 0.06
24564 H 80.50075166419782 72.69560832793957 26.25261944449599 H 0.0 **** 0.06
24565 H 81.33689681775087 72.04384609123093 27.68256924675319 H 0.0 **** 0.06
24566 C 41.15340613212865 92.9730520634325 68.89323463185332 C 0.0 **** -0.24
24567 H 40.954236758169515 93.83306988472137 69.53252913022379 H 0.0 **** 0.06
24568 H 40.24037872637314 92.69183716869584 68.36828444071813 H 0.0 **** 0.06
24569 H 41.493690542068435 92.13765006695814 69.50445270411507 H 0.0 **** 0.06
24570 H 41.9250352946802 93.2318687456896 68.16762457101404 H 0.0 **** 0.06
24571 C 29.701612226842315 58.64414339059044 11.902765099754049 C 0.0 **** -0.24
24572 H 29.015378882311495 58.63571408364098 11.055953257401768 H 0.0 **** 0.06
24573 H 30.686026690646273 58.30985880342158 11.574450370967327 H 0.0 **** 0.06
24574 H 29.33078955875365 57.975631443874406 12.679022026901123 H 0.0 **** 0.06
24575 H 29.77458736421204 59.656853928856265 12.29999624549356 H 0.0 **** 0.06
24576 C 6.659539992805151 46.83030121626844 98.77609217801086 C 0.0 **** -0.24
24577 H 7.607591989575525 46.56654312121472 99.24553511332932 H 0.0 **** 0.06
24578 H 6.661182415782946 47.89176246551551 98.52579846288477 H 0.0 **** 0.06
24579 H 5.842163587513426 46.620531405333566 99.46561227267928 H 0.0 **** 0.06
24580 H 6.528491865994397 46.24285418337064 97.86781145203913 H 0.0 **** 0.06
24581 C 21.759073034671673 70.58932358596344 109.94124731982727 C 0.0 **** -0.24
24582 H 21.557306321390797 70.57640801627971 111.01268372869582 H 0.0 **** 0.06
24583 H 21.85376080581409 71.62095771490227 109.60226825505549 H 0.0 **** 0.06
24584 H 20.93815788517145 70.10532961557327 109.41117113035438 H 0.0 **** 0.06
24585 H 22.68694128323682 70.05350396850889 109.74081176542391 H 0.0 **** 0.06
24586 C 53.74978984530649 43.83397901855054 54.17561561630498 C 0.0 **** -0.24
24587 H 54.814245619434445 43.844255006911624 53.93794157120874 H 0.0 **** 0.06
24588 H 53.35284475995346 44.84626878518114 54.106387557951734 H 0.0 **** 0.06
24589 H 53.608662350691546 43.455621166512515 55.1883070546848 H 0.0 **** 0.06
24590 H 53.22622154917006 43.18800360853058 53.470802473073036 H 0.0 **** 0.06
24591 C 57.11033696685837 44.30599479354669 76.4568444933346 C 0.0 **** -0.24
24592 H 56.82985792336024 43.34671653255759 76.02026877630966 H 0.0 **** 0.06
24593 H 56.23023036096889 44.775306050335644 76.89633949287878 H 0.0 **** 0.06
24594 H 57.51705378485178 44.953607338270615 75.68010259371559 H 0.0 **** 0.06
24595 H 57.8620153977527 44.14731187131895 77.22920887871531 H 0.0 **** 0.06
24596 C 69.44291416562675 74.98579319327153 74.36911271879302 C 0.0 **** -0.24
24597 H 69.072532065771 74.58653343997608 73.4248112231528 H 0.0 **** 0.06
24598 H 68.92235021756443 75.91506844210213 74.5987955349099 H 0.0 **** 0.06
24599 H 70.51235023924059 75.17845508718561 74.28658753521114 H 0.0 **** 0.06
24600 H 69.26322842648418 74.26211585570299 75.16465325491265 H 0.0 **** 0.06
24601 C 77.36391782398826 110.23109860497456 47.49325223030676 C 0.0 **** -0.24
24602 H 76.49045192488192 110.5223038931922 48.07728082451593 H 0.0 **** 0.06
24603 H 77.53402905605289 109.1604421878995 47.60461440247832 H 0.0 **** 0.06
24604 H 78.23680886259238 110.77800851144889 47.850109848656956 H 0.0 **** 0.06
24605 H 77.19213727992341 110.46497193004 46.442789835733656 H 0.0 **** 0.06
24606 C 76.8806042542814 1.988797521158716 34.00535496177642 C 0.0 **** -0.24
24607 H 77.38370051080442 2.42823051259424 34.86731169961928 H 0.0 **** 0.06
24608 H 76.17321679092774 1.2320786259927416 34.34475450623114 H 0.0 **** 0.06
24609 H 77.61910641183873 1.5283523702809418 33.349747358046315 H 0.0 **** 0.06
24610 H 76.34700178489385 2.768340059840824 33.46076755846545 H 0.0 **** 0.06
24611 C 4.554106017999274 14.422833123039482 4.114340415438562 C 0.0 **** -0.24
24612 H 3.871375497927289 13.606993848875959 4.352243508666675 H 0.0 **** 0.06
24613 H 5.159809736420357 14.150628998167889 3.249669088323401 H 0.0 **** 0.06
24614 H 5.2053600111131 14.611683687223177 4.968680713832839 H 0.0 **** 0.06
24615 H 3.9815611806486686 15.32226575610349 3.8892407370699402 H 0.0 **** 0.06
24616 C 5.697409274353674 114.1376409251299 50.76877742260204 C 0.0 **** -0.24
24617 H 6.356078065346793 114.75510949445412 50.15719128530435 H 0.0 **** 0.06
24618 H 5.656761483429108 113.1299083520007 50.35443165476594 H 0.0 **** 0.06
24619 H 4.697010163888592 114.56943283042037 50.77451130550976 H 0.0 **** 0.06
24620 H 6.081617855405028 114.09610482727793 51.78769107949415 H 0.0 **** 0.06
24621 C 29.898272205947023 25.611895200758966 29.03831220867297 C 0.0 **** -0.24
24622 H 30.49750902315079 26.304096985677916 29.63012763690292 H 0.0 **** 0.06
24623 H 29.12571023204047 25.17121670919525 29.66753629707499 H 0.0 **** 0.06
24624 H 30.539685677300604 24.82411864167392 28.641895173986065 H 0.0 **** 0.06
24625 H 29.43235491122328 26.15006747301706 28.21291216761132 H 0.0 **** 0.06
24626 C 39.88078711554123 85.26219859397443 37.907685545515335 C 0.0 **** -0.24
24627 H 38.867414661990445 85.4270530962354 37.54100742611638 H 0.0 **** 0.06
24628 H 39.89182309042224 84.39416501276949 38.56657054482008 H 0.0 **** 0.06
24629 H 40.21451704230286 86.14185275279954 38.459209363366654 H 0.0 **** 0.06
24630 H 40.54848788452673 85.08775992834333 37.0637735783169 H 0.0 **** 0.06
24631 C 64.1734829922267 10.532849119096674 20.77023776973101 C 0.0 **** -0.24
24632 H 64.96797041295707 11.087387884759423 20.2720922288795 H 0.0 **** 0.06
24633 H 64.56678541648034 10.069641219954253 21.675903976277027 H 0.0 **** 0.06
24634 H 63.79399559587279 9.760120862447987 20.10177617514023 H 0.0 **** 0.06
24635 H 63.364027510758575 11.21507642691341 21.032905555950435 H 0.0 **** 0.06
24636 C 25.618770320550652 0.4420711632046448 47.28305290715679 C 0.0 **** -0.24
24637 H 26.50151462684545 0.8124763594135516 47.805067353200855 H 0.0 **** 0.06
24638 H 24.917074808543816 0.02638201223822989 48.00689235761777 H 0.0 **** 0.06
24639 H 25.91360873299388 -0.33196256883290687 46.575420536240415 H 0.0 **** 0.06
24640 H 25.143258872914657 1.2632388950051308 46.74716304413778 H 0.0 **** 0.06
24641 C 89.54220557834373 98.4954761288389 43.08276454833815 C 0.0 **** -0.24
24642 H 89.46941937995689 97.56999205573214 43.654377161799175 H 0.0 **** 0.06
24643 H 90.5102236930016 98.96096172276337 43.267035062268576 H 0.0 **** 0.06
24644 H 88.74769821934663 99.17577444717556 43.390605171271915 H 0.0 **** 0.06
24645 H 89.44069625154151 98.27559005215707 42.01950231103155 H 0.0 **** 0.06
24646 C 65.56317871194256 40.712645227339834 9.59897903157389 C 0.0 **** -0.24
24647 H 65.7071882833672 40.745059922478504 10.678910085615257 H 0.0 **** 0.06
24648 H 64.99993435338092 39.816985100796444 9.334815542970873 H 0.0 **** 0.06
24649 H 66.53318264864555 40.691228490812534 9.103609307197473 H 0.0 **** 0.06
24650 H 65.01097609506834 41.59591502668229 9.27849928424908 H 0.0 **** 0.06
24651 C 78.03137577678828 113.9985197905279 8.37784315366865 C 0.0 **** -0.24
24652 H 78.98469279816213 113.8002884293959 7.886420093751937 H 0.0 **** 0.06
24653 H 77.6296026732871 114.94763074283894 8.020045096252048 H 0.0 **** 0.06
24654 H 78.1826677522623 114.05118158655849 9.455449277912663 H 0.0 **** 0.06
24655 H 77.33011656461176 113.19682340192598 8.146986155865676 H 0.0 **** 0.06
24656 C 0.9314169681616704 110.25259441992208 35.948683643447 C 0.0 **** -0.24
24657 H 1.7577185516491056 110.94996260121208 35.808519798700246 H 0.0 **** 0.06
24658 H 0.23303561124950534 110.34618021602756 35.117004175180256 H 0.0 **** 0.06
24659 H 0.4175841386953607 110.48139575741861 36.882629228245236 H 0.0 **** 0.06
24660 H 1.318442274675533 109.23474980310664 35.98763563191497 H 0.0 **** 0.06
24661 C 29.646757002119713 84.79579046046305 85.05305293588262 C 0.0 **** -0.24
24662 H 30.417292444494954 85.37859371856828 85.55906788063646 H 0.0 **** 0.06
24663 H 30.10885688924835 83.94805509384129 84.54545556020636 H 0.0 **** 0.06
24664 H 29.138996042273988 85.42425876021372 84.3221891368231 H 0.0 **** 0.06
24665 H 28.9262291051402 84.43369833097528 85.78534406901878 H 0.0 **** 0.06
24666 C 34.08538387085258 25.525350583944565 112.3045017545179 C 0.0 **** -0.24
24667 H 35.114011288196 25.227142441518467 112.10390752429856 H 0.0 **** 0.06
24668 H 33.479899551087385 24.63797952586259 112.48970140703369 H 0.0 **** 0.06
24669 H 33.68827046945481 26.063443772771585 111.44291176807275 H 0.0 **** 0.06
24670 H 34.05872556573115 26.173359480898036 113.1809105594694 H 0.0 **** 0.06
24671 C 47.39338017089472 65.37394052049936 71.50515987778539 C 0.0 **** -0.24
24672 H 46.81614145381935 66.29769305311154 71.55302757690444 H 0.0 **** 0.06
24673 H 48.10316571403289 65.34645945208975 72.3313310291204 H 0.0 **** 0.06
24674 H 47.93362184404365 65.33255278791295 70.55913473591491 H 0.0 **** 0.06
24675 H 46.718436972085456 64.52010344916435 71.57663419940411 H 0.0 **** 0.06
24676 C 80.62825227766993 93.16206122328072 112.78302579800717 C 0.0 **** -0.24
24677 H 81.31466296100098 92.71231354802086 113.5010264979762 H 0.0 **** 0.06
24678 H 80.24802032730636 94.10198608206113 113.18390672069972 H 0.0 **** 0.06
24679 H 79.79664662418622 92.48141625123299 112.60063880914444 H 0.0 **** 0.06
24680 H 81.15481258171678 93.35137987417531 111.84715973008414 H 0.0 **** 0.06
24681 C 11.856801225796133 14.84695267839541 64.30567670019408 C 0.0 **** -0.24
24682 H 10.912229258766942 14.310442801549726 64.38457157867201 H 0.0 **** 0.06
24683 H 11.688411467277263 15.907734585291138 64.49097694482835 H 0.0 **** 0.06
24684 H 12.268430939089143 14.712925421688595 63.30556660603796 H 0.0 **** 0.06
24685 H 12.559187220335218 14.456162043512535 65.04236061222991 H 0.0 **** 0.06
24686 C 1.4984451997290336 6.962177321203084 56.89805223274027 C 0.0 **** -0.24
24687 H 0.8794502627075076 6.096594674285081 57.13269337579014 H 0.0 **** 0.06
24688 H 2.1247503466740483 6.737345820569088 56.034243652768 H 0.0 **** 0.06
24689 H 2.130682935232386 7.199333341613354 57.753143437041544 H 0.0 **** 0.06
24690 H 0.8591531974548445 7.815561016406043 56.671169933866636 H 0.0 **** 0.06
24691 C 92.7473432627828 0.8696070857448035 62.685768269793826 C 0.0 **** -0.24
24692 H 93.23329522368829 1.7271256354391937 62.22001168035152 H 0.0 **** 0.06
24693 H 92.3378390261885 0.2191828396267681 61.912502359801806 H 0.0 **** 0.06
24694 H 91.94153989188936 1.2172596049010167 63.33256362503836 H 0.0 **** 0.06
24695 H 93.47574963211906 0.31704534166621556 63.278565190395426 H 0.0 **** 0.06
24696 C 17.520343540540303 111.36102817181838 99.57039221123644 C 0.0 **** -0.24
24697 H 18.03856885363635 110.5117648355396 100.01451809992379 H 0.0 **** 0.06
24698 H 16.50922713695903 111.0632133627544 99.29156690511385 H 0.0 **** 0.06
24699 H 18.060049230532194 111.69209660728735 98.6830416472413 H 0.0 **** 0.06
24700 H 17.473858796800172 112.17663207404692 100.29158980062648 H 0.0 **** 0.06
24701 C 1.266624608477514 75.9459980347396 53.662465839652214 C 0.0 **** -0.24
24702 H 0.32595660952844696 76.48536873870401 53.54521143886433 H 0.0 **** 0.06
24703 H 1.4679464156214976 75.7938563716905 54.72298694476319 H 0.0 **** 0.06
24704 H 2.0751786913255614 76.52604722888029 53.217613299957804 H 0.0 **** 0.06
24705 H 1.194354941857739 74.97941436489099 53.163672626070365 H 0.0 **** 0.06
24706 C 91.95561034425242 53.224978316571935 109.00909708747736 C 0.0 **** -0.24
24707 H 92.96886920299525 53.10804977142698 108.6235393008346 H 0.0 **** 0.06
24708 H 91.93418784979919 52.952176627784894 110.06422640359132 H 0.0 **** 0.06
24709 H 91.2787422061092 52.57639078083898 108.45209947457589 H 0.0 **** 0.06
24710 H 91.64163136138438 54.26207126670906 108.89464658996575 H 0.0 **** 0.06
24711 C 108.14930767249251 109.40119069132078 98.7594950197576 C 0.0 **** -0.24
24712 H 107.85319238008408 110.42030721942989 98.51053960425224 H 0.0 **** 0.06
24713 H 108.35379627372916 108.84917056162045 97.84284259486071 H 0.0 **** 0.06
24714 H 107.34377894411615 108.91301685687726 99.30708635388407 H 0.0 **** 0.06
24715 H 109.04689759550051 109.42500888204418 99.37805918046445 H 0.0 **** 0.06
24716 C 93.91201968311847 27.626284851033972 43.80528430044009 C 0.0 **** -0.24
24717 H 93.52871542046518 27.455653321767514 44.81136594984057 H 0.0 **** 0.06
24718 H 93.19048349238409 28.213075670342796 43.235765484717085 H 0.0 **** 0.06
24719 H 94.07281699783096 26.668596531843036 43.31112459890776 H 0.0 **** 0.06
24720 H 94.85577702203909 28.16853911593317 43.86350759344484 H 0.0 **** 0.06
24721 C 46.815792755401446 3.8628925602779294 62.6377799502356 C 0.0 **** -0.24
24722 H 45.83401539871949 3.620651675407208 63.04654910057536 H 0.0 **** 0.06
24723 H 46.78295691531534 4.851034761544664 62.17760452945896 H 0.0 **** 0.06
24724 H 47.08978083013699 3.1213884279454103 61.887175712135274 H 0.0 **** 0.06
24725 H 47.5538443977463 3.859917049611207 63.43919333331769 H 0.0 **** 0.06
24726 C 63.915089893532624 114.31892238896617 80.71095166108006 C 0.0 **** -0.24
24727 H 64.9726855018375 114.3233191201933 80.44695022336019 H 0.0 **** 0.06
24728 H 63.338927887706106 113.8761260075554 79.89816553111828 H 0.0 **** 0.06
24729 H 63.578392481839686 115.34188034773146 80.88043748998085 H 0.0 **** 0.06
24730 H 63.77020167918651 113.73455410222965 81.62023859707618 H 0.0 **** 0.06
24731 C 80.63337752419459 43.80356255447591 15.458752652681568 C 0.0 **** -0.24
24732 H 81.62805650775256 43.72296382548467 15.89782912777801 H 0.0 **** 0.06
24733 H 80.56631321110034 43.14917902714603 14.589066970305737 H 0.0 **** 0.06
24734 H 80.4541914404355 44.83434762780518 15.153393813162722 H 0.0 **** 0.06
24735 H 79.88683215320081 43.506970816725335 16.19563250371209 H 0.0 **** 0.06
24736 C 95.58297382295912 64.75954971715231 7.496556634894629 C 0.0 **** -0.24
24737 H 96.05880276686192 65.48966590722466 8.151458715377405 H 0.0 **** 0.06
24738 H 95.43419553481691 63.82697127165682 8.039720466266829 H 0.0 **** 0.06
24739 H 96.22034554438156 64.57872057479568 6.630753718549203 H 0.0 **** 0.06
24740 H 94.61959683017328 65.14486176677056 7.163385631245495 H 0.0 **** 0.06
24741 C 40.940442169570446 0.8990622809976117 1.9369197019802868 C 0.0 **** -0.24
24742 H 40.04231064151446 0.30653636997971034 2.111190631660122 H 0.0 **** 0.06
24743 H 41.803981643765496 0.37856085596848743 2.351521222385429 H 0.0 **** 0.06
24744 H 40.83496996982559 1.870398231785316 2.4201056279035527 H 0.0 **** 0.06
24745 H 41.08046910194095 1.039413593875679 0.8653118000135009 H 0.0 **** 0.06
24746 C 29.65861398253537 81.6065921517985 109.34901772681687 C 0.0 **** -0.24
24747 H 29.04994932978076 81.0949979817059 108.60366728600539 H 0.0 **** 0.06
24748 H 30.71205369846797 81.51109970684425 109.08394685017595 H 0.0 **** 0.06
24749 H 29.487761520998845 81.15841703513922 110.32789977505757 H 0.0 **** 0.06
24750 H 29.384727578895138 82.66077811351188 109.37963965075497 H 0.0 **** 0.06
24751 C 36.236797075545695 96.29770929976677 23.814573392650832 C 0.0 **** -0.24
24752 H 35.67242336294706 97.22792953489076 23.73601584281763 H 0.0 **** 0.06
24753 H 36.97123341969059 96.38507266705906 24.61556745133091 H 0.0 **** 0.06
24754 H 36.747087182716925 96.10211537874014 22.871223720041463 H 0.0 **** 0.06
24755 H 35.55340582790657 95.47704916928689 24.035466975951557 H 0.0 **** 0.06
24756 C 81.79440052975576 30.638539788043744 94.79446325367428 C 0.0 **** -0.24
24757 H 81.4739013771214 31.625196517551956 94.45872765467925 H 0.0 **** 0.06
24758 H 82.66166736059253 30.322944759273867 94.21635127960485 H 0.0 **** 0.06
24759 H 80.98222901232629 29.92484664674066 94.652293839089 H 0.0 **** 0.06
24760 H 82.05798452212736 30.68347012429325 95.85111565285399 H 0.0 **** 0.06
24761 C 87.46211937130647 90.80675690956417 29.108577925459628 C 0.0 **** -0.24
24762 H 87.40104849162577 91.8000733831121 28.666068967123053 H 0.0 **** 0.06
24763 H 88.34558951602543 90.29342839860368 28.727673797304988 H 0.0 **** 0.06
24764 H 86.56988078179688 90.23676770610729 28.847796001973023 H 0.0 **** 0.06
24765 H 87.53204441554706 90.8953466846016 30.192749912608548 H 0.0 **** 0.06
24766 C 34.683909950121944 13.002273784157467 108.20230795199893 C 0.0 **** -0.24
24767 H 35.15567736095721 12.384079830901726 107.4383908678515 H 0.0 **** 0.06
24768 H 34.27611418696182 12.364066244760807 108.98503791966395 H 0.0 **** 0.06
24769 H 33.880203522805516 13.58464345194443 107.75142202453864 H 0.0 **** 0.06
24770 H 35.42502016839862 13.676668806058188 108.6317396386709 H 0.0 **** 0.06
24771 C 89.66492494363519 111.24691472194772 111.29174745979303 C 0.0 **** -0.24
24772 H 90.26189898583138 112.12646491366795 111.05130621949742 H 0.0 **** 0.06
24773 H 90.1773743946713 110.65752063312893 112.05296805774951 H 0.0 **** 0.06
24774 H 89.53055534643455 110.64317152458968 110.39372709908642 H 0.0 **** 0.06
24775 H 88.69190092076127 111.56051749654206 111.66805056444025 H 0.0 **** 0.06
24776 C 87.8323478410065 74.91505890072693 71.1352592257211 C 0.0 **** -0.24
24777 H 87.88072714579387 75.50626101701664 70.22038158480244 H 0.0 **** 0.06
24778 H 87.0791672670091 74.13570082428805 71.02472643757423 H 0.0 **** 0.06
24779 H 87.56760672152636 75.56220486635357 71.97184384805142 H 0.0 **** 0.06
24780 H 88.80377002414454 74.45763621383196 71.32398390646814 H 0.0 **** 0.06
24781 C 74.297469578584 15.116193774317516 42.50956436339908 C 0.0 **** -0.24
24782 H 74.47904255134614 16.186209968588038 42.40995945446099 H 0.0 **** 0.06
24783 H 74.18102132431781 14.865086093704182 43.564204271227794 H 0.0 **** 0.06
24784 H 75.14133256874754 14.564074812859648 42.09530781761791 H 0.0 **** 0.06
24785 H 73.38849926609765 14.849771000353368 41.970478642307796 H 0.0 **** 0.06
24786 C 87.2602919225174 89.11928600545991 94.49833597128644 C 0.0 **** -0.24
24787 H 88.08532917345379 89.50298090859997 95.09898923528476 H 0.0 **** 0.06
24788 H 87.04206062780806 89.8194461136323 93.69143044583761 H 0.0 **** 0.06
24789 H 86.37729582598566 89.00255521771851 95.12745633145849 H 0.0 **** 0.06
24790 H 87.53601442049346 88.15234144134536 94.07712594485466 H 0.0 **** 0.06
24791 C 67.34255463620109 4.5603956786375335 88.30249831791204 C 0.0 **** -0.24
24792 H 66.39611544577934 4.26475148945687 87.85060686627287 H 0.0 **** 0.06
24793 H 67.82348860576546 5.3144697371251794 87.67938003781057 H 0.0 **** 0.06
24794 H 67.99340764141857 3.6889180502475227 88.38475257147178 H 0.0 **** 0.06
24795 H 67.15902054416368 4.971273363491818 89.29521192849074 H 0.0 **** 0.06
24796 C 101.84670954320336 90.7784227939087 8.844589837742575 C 0.0 **** -0.24
24797 H 100.7758918254604 90.66464774131941 9.01757332662045 H 0.0 **** 0.06
24798 H 102.02593697206953 91.6778992783888 8.255790106709682 H 0.0 **** 0.06
24799 H 102.22080693689156 89.90927663076735 8.3027663529369 H 0.0 **** 0.06
24800 H 102.36215764524957 90.85998326287222 9.80110311523815 H 0.0 **** 0.06
24801 C 38.68981253737641 81.3210104530542 8.6643863817757 C 0.0 **** -0.24
24802 H 38.87876776110505 80.57889727047991 7.888770177124343 H 0.0 **** 0.06
24803 H 39.2289125929631 82.23859433928413 8.427199665799577 H 0.0 **** 0.06
24804 H 39.03124757332853 80.93715903458467 9.626056176711316 H 0.0 **** 0.06
24805 H 37.621255043552054 81.53038438083709 8.715140712170097 H 0.0 **** 0.06
24806 C 30.830233357488154 45.07513764246329 25.23430062827356 C 0.0 **** -0.24
24807 H 31.877471092078082 44.77303348469252 25.206143977241936 H 0.0 **** 0.06
24808 H 30.356149886407763 44.82935428215282 24.28363927797821 H 0.0 **** 0.06
24809 H 30.76606741706722 46.149904833728044 25.404417574212147 H 0.0 **** 0.06
24810 H 30.32090282143649 44.54756178067319 26.040904424492624 H 0.0 **** 0.06
24811 C 73.06813857855076 2.0154265274375405 52.70536992495795 C 0.0 **** -0.24
24812 H 73.01076291398869 3.1037859744405125 52.69977644832721 H 0.0 **** 0.06
24813 H 72.0620001344061 1.5988445499448005 52.75228941726442 H 0.0 **** 0.06
24814 H 73.63839980076125 1.6869833870044033 53.574981254213924 H 0.0 **** 0.06
24815 H 73.56289141054845 1.6734610499016185 51.79580252532554 H 0.0 **** 0.06
24816 C 87.43504487810617 115.42926114186844 46.703900805123546 C 0.0 **** -0.24
24817 H 86.57414082546715 114.85455671136052 46.362308086815865 H 0.0 **** 0.06
24818 H 87.61676410077074 115.21951476434833 47.75804175515233 H 0.0 **** 0.06
24819 H 87.23494403897395 116.49334041278468 46.57422593708079 H 0.0 **** 0.06
24820 H 88.31249777907402 115.15032384500549 46.11994876874894 H 0.0 **** 0.06
24821 C 83.25484603093247 2.627886818758334 104.00263216360922 C 0.0 **** -0.24
24822 H 84.22579810434608 2.829405470322147 104.45590239057424 H 0.0 **** 0.06
24823 H 83.02213509380765 3.409891229858781 103.2803702776129 H 0.0 **** 0.06
24824 H 82.48928114989165 2.609551703090773 104.77873256164216 H 0.0 **** 0.06
24825 H 83.28409108056995 1.6620902541214821 103.49774573958625 H 0.0 **** 0.06
24826 C 55.752168526660114 51.86863683734346 20.475525814450066 C 0.0 **** -0.24
24827 H 55.93478454752287 52.77782484441629 21.049093734689226 H 0.0 **** 0.06
24828 H 56.39533274513059 51.07024776129273 20.846238976914908 H 0.0 **** 0.06
24829 H 55.97179520087934 52.05381288292092 19.424268241079144 H 0.0 **** 0.06
24830 H 54.70851175451037 51.575295018598936 20.58256597145587 H 0.0 **** 0.06
24831 C 111.30424809526765 45.31122716877405 25.779939687407307 C 0.0 **** -0.24
24832 H 111.90035629982495 46.04603775811103 25.23960468751062 H 0.0 **** 0.06
24833 H 111.90012346064846 44.413944143009815 25.949637432593363 H 0.0 **** 0.06
24834 H 110.42254723876174 45.05570605163189 25.191308076449275 H 0.0 **** 0.06
24835 H 110.99358625738009 45.72817604565748 26.738333893717538 H 0.0 **** 0.06
24836 C 80.20104229023445 31.933706248237286 78.55283664145335 C 0.0 **** -0.24
24837 H 79.91596803101038 32.681626476492454 79.29349554877636 H 0.0 **** 0.06
24838 H 79.36767245200252 31.76183516024085 77.87071299709469 H 0.0 **** 0.06
24839 H 80.45661610529277 31.00265157145401 79.05752733810101 H 0.0 **** 0.06
24840 H 81.06391617710912 32.29074140580647 77.99054924975816 H 0.0 **** 0.06
24841 C 33.22316487673288 73.6682105164436 100.97660003137074 C 0.0 **** -0.24
24842 H 32.39088521812573 72.97056121624263 100.88296466490118 H 0.0 **** 0.06
24843 H 33.35439156759517 73.93875221395211 102.02483634192484 H 0.0 **** 0.06
24844 H 33.012048590841914 74.5649143620289 100.39326759783269 H 0.0 **** 0.06
24845 H 34.13388729275792 73.19946804270617 100.6049097273394 H 0.0 **** 0.06
24846 C 30.176801116089415 104.6966191230025 100.046350868006 C 0.0 **** -0.24
24847 H 29.290615553600638 105.18494742010182 100.4526170605965 H 0.0 **** 0.06
24848 H 30.814775568737396 105.44156154861412 99.56986478755724 H 0.0 **** 0.06
24849 H 29.875756332476683 103.9511315290789 99.31087157216817 H 0.0 **** 0.06
24850 H 30.725249063791317 104.2111858269489 100.85400608810461 H 0.0 **** 0.06
24851 C 68.85538155114011 72.99739173038083 68.37055823350914 C 0.0 **** -0.24
24852 H 69.05212863884788 71.96416731446186 68.08532952460723 H 0.0 **** 0.06
24853 H 67.94929513188595 73.04088221599085 68.97665860000393 H 0.0 **** 0.06
24854 H 68.72308702421765 73.6035692807962 67.47459145549539 H 0.0 **** 0.06
24855 H 69.6973211918359 73.38173564452975 68.94772375759527 H 0.0 **** 0.06
24856 C 19.703712058521603 107.84220990386036 0.6586888736036514 C 0.0 **** -0.24
24857 H 18.8296951973295 107.54516674020734 0.0796142641582378 H 0.0 **** 0.06
24858 H 19.65164227154048 108.90994397206727 0.8743421082012901 H 0.0 **** 0.06
24859 H 20.607468105633842 107.63111162483874 0.08640300058723938 H 0.0 **** 0.06
24860 H 19.727137597049875 107.28204479603214 1.5931822242111906 H 0.0 **** 0.06
24861 C 98.49907783869497 93.74350664183801 58.1161270046444 C 0.0 **** -0.24
24862 H 99.5675984161245 93.958914975989 58.09052195525493 H 0.0 **** 0.06
24863 H 98.23506092921184 93.11661493219125 57.26325918220965 H 0.0 **** 0.06
24864 H 97.93970195089486 94.6773335280758 58.06707118450382 H 0.0 **** 0.06
24865 H 98.25635583293393 93.22123823038271 59.04079083958419 H 0.0 **** 0.06
24866 C 39.284414730581545 62.38464978680497 85.1579853501181 C 0.0 **** -0.24
24867 H 39.693869220269335 61.57582388885186 85.76385933798387 H 0.0 **** 0.06
24868 H 40.062104769125256 62.775961555603516 84.5029381794822 H 0.0 **** 0.06
24869 H 38.92539310532311 63.17979084581302 85.81146658750272 H 0.0 **** 0.06
24870 H 38.458089559408336 62.00636295923067 84.55732882422842 H 0.0 **** 0.06
24871 C 11.66126694015179 109.89448040207435 31.785697230346102 C 0.0 **** -0.24
24872 H 10.723145221505831 109.3554355327278 31.66019533102218 H 0.0 **** 0.06
24873 H 12.441935738263908 109.19836313182904 32.09233467887202 H 0.0 **** 0.06
24874 H 11.539032873781878 110.66251087110665 32.55030736752073 H 0.0 **** 0.06
24875 H 11.940628729801631 110.36206475905465 30.841872363898204 H 0.0 **** 0.06
24876 C 73.1663632626072 52.46502583048747 104.60504843212266 C 0.0 **** -0.24
24877 H 72.3276029149836 52.78782490890504 103.98813401368636 H 0.0 **** 0.06
24878 H 73.31888298186283 53.17880176130572 105.41408005242272 H 0.0 **** 0.06
24879 H 74.06680134405445 52.41007021684943 103.99285832798364 H 0.0 **** 0.06
24880 H 72.95144263360845 51.48156590673103 105.02309897746017 H 0.0 **** 0.06
24881 C 46.08863545874277 113.48989075841806 109.10441388520822 C 0.0 **** -0.24
24882 H 45.99750676091685 114.5264212611094 108.7778840996296 H 0.0 **** 0.06
24883 H 46.67280051672958 113.44991000075262 110.02467600585138 H 0.0 **** 0.06
24884 H 46.58836134533374 112.90826355854912 108.32984988850707 H 0.0 **** 0.06
24885 H 45.09566718838431 113.07865778054345 109.28583329135685 H 0.0 **** 0.06
24886 C 82.35999883912149 1.3828658327312358 53.856699952784425 C 0.0 **** -0.24
24887 H 82.63993126310413 1.5503016738463824 54.89699445919746 H 0.0 **** 0.06
24888 H 81.39764715650887 0.8725581801911542 53.81709069983225 H 0.0 **** 0.06
24889 H 83.1183650422075 0.7689128960480609 53.37061347791794 H 0.0 **** 0.06
24890 H 82.28482282588752 2.340834685613199 53.34241230606034 H 0.0 **** 0.06
24891 C 31.664135826600642 61.40731301852925 8.591964343971227 C 0.0 **** -0.24
24892 H 30.861884328183038 61.19350890265093 7.885405137221049 H 0.0 **** 0.06
24893 H 31.251227965121927 61.90081148710058 9.471661963696825 H 0.0 **** 0.06
24894 H 32.39896248501918 62.059970491690805 8.119971130617 H 0.0 **** 0.06
24895 H 32.14405715741941 60.474915919205316 8.88913721240139 H 0.0 **** 0.06
24896 C 44.92962371102982 77.25858100383479 79.24648117726593 C 0.0 **** -0.24
24897 H 44.07877940456689 76.63450291326842 79.51532484891892 H 0.0 **** 0.06
24898 H 44.572384602062584 78.22431179058464 78.8877265682818 H 0.0 **** 0.06
24899 H 45.50583178273001 76.77014997491267 78.46131375344463 H 0.0 **** 0.06
24900 H 45.5618009935651 77.40775543217507 80.12196929444141 H 0.0 **** 0.06
24901 C 53.96572455459693 97.35010808182582 84.20351686719943 C 0.0 **** -0.24
24902 H 53.873819532520145 97.68656039576115 83.17161146020595 H 0.0 **** 0.06
24903 H 55.002546888700465 97.44563279296392 84.52555105139243 H 0.0 **** 0.06
24904 H 53.65665918055504 96.30723408049798 84.27520350642408 H 0.0 **** 0.06
24905 H 53.32813791114779 97.9612985360859 84.84308165073327 H 0.0 **** 0.06
24906 C 37.80159491299467 11.066850219758976 92.66663074761513 C 0.0 **** -0.24
24907 H 38.10671564723613 11.006003120864946 93.71100639324604 H 0.0 **** 0.06
24908 H 38.44728754418226 10.427793625187263 92.06265611028675 H 0.0 **** 0.06
24909 H 37.88500382082768 12.097246613856782 92.32291181282773 H 0.0 **** 0.06
24910 H 36.767785280165484 10.73323026265912 92.5701735373438 H 0.0 **** 0.06
24911 C 44.95152436646191 64.1998918941263 84.12121231017568 C 0.0 **** -0.24
24912 H 43.88255798523744 64.24376806171699 84.33070773878 H 0.0 **** 0.06
24913 H 45.14554959363687 63.41894162831778 83.38600319342481 H 0.0 **** 0.06
24914 H 45.49355461215711 63.97697373329635 85.04032235200128 H 0.0 **** 0.06
24915 H 45.28408295187782 65.16110036541755 83.72718602788973 H 0.0 **** 0.06
24916 C 38.64970035907302 98.57209245635235 20.93540236406676 C 0.0 **** -0.24
24917 H 37.565997915359105 98.45806677227404 20.963110042172246 H 0.0 **** 0.06
24918 H 39.071968869137606 97.85598216139448 20.23057834804183 H 0.0 **** 0.06
24919 H 39.059108660602476 98.3887321962826 21.928539505053777 H 0.0 **** 0.06
24920 H 38.89982880410349 99.58472227683887 20.620187963029025 H 0.0 **** 0.06
24921 C 59.680346924800475 113.90449659764154 73.55072219496765 C 0.0 **** -0.24
24922 H 59.128015725946014 114.57927372784577 74.20473490648214 H 0.0 **** 0.06
24923 H 60.45763072644367 114.46269957437872 73.02666970451003 H 0.0 **** 0.06
24924 H 58.99756660315239 113.46297140675327 72.82464568060459 H 0.0 **** 0.06
24925 H 60.13777448040938 113.11509379829668 74.14604541154469 H 0.0 **** 0.06
24926 C 55.12654541374593 13.58028369131307 35.440767253439645 C 0.0 **** -0.24
24927 H 55.36759947418216 13.37427922178341 36.483525442331796 H 0.0 **** 0.06
24928 H 55.98949556060552 13.348765257263324 34.81597621328913 H 0.0 **** 0.06
24929 H 54.86960011336083 14.633837857458843 35.3288775341627 H 0.0 **** 0.06
24930 H 54.280825055369235 12.96480956645172 35.13563748213369 H 0.0 **** 0.06
24931 C 9.71472981491894 79.31112532920088 30.46561799155228 C 0.0 **** -0.24
24932 H 10.147285027521903 78.60264050331674 31.170366640726243 H 0.0 **** 0.06
24933 H 9.338747818115351 78.77348749446111 29.593857829286577 H 0.0 **** 0.06
24934 H 10.477417772363381 80.02439483608788 30.152325360853467 H 0.0 **** 0.06
24935 H 8.893013151673216 79.84458101900412 30.94430719543695 H 0.0 **** 0.06
24936 C 7.935503238303056 101.45149381324416 49.92676562952244 C 0.0 **** -0.24
24937 H 8.650516526929366 101.31278019409905 50.73679217184566 H 0.0 **** 0.06
24938 H 7.805796717803048 100.51101502685663 49.39103767815444 H 0.0 **** 0.06
24939 H 8.307689011916352 102.21254469288166 49.24036202644035 H 0.0 **** 0.06
24940 H 6.977607580967145 101.77131078010868 50.33904547288107 H 0.0 **** 0.06
24941 C 74.6796075113896 18.849154678534717 47.01574534733293 C 0.0 **** -0.24
24942 H 75.39558796952052 18.627598778074287 46.22405946124688 H 0.0 **** 0.06
24943 H 73.68808502743711 18.982224797637116 46.58163922219902 H 0.0 **** 0.06
24944 H 74.97748658216233 19.762724866443193 47.5292295855378 H 0.0 **** 0.06
24945 H 74.6577344748528 18.023673840571007 47.72677732567416 H 0.0 **** 0.06
24946 C 41.530244089357 104.6257804146425 73.89600796882382 C 0.0 **** -0.24
24947 H 41.57367733122234 105.50296384048383 74.54091439312339 H 0.0 **** 0.06
24948 H 42.3709595463926 104.64394890399699 73.20078058497944 H 0.0 **** 0.06
24949 H 40.59565786582843 104.63244452113275 73.3360537970863 H 0.0 **** 0.06
24950 H 41.58229471580702 103.72367340482012 74.50510418063521 H 0.0 **** 0.06
24951 C 5.223364147484688 2.7430597293905237 31.295776292007538 C 0.0 **** -0.24
24952 H 4.38028826513424 2.2051193871365484 31.731511197684434 H 0.0 **** 0.06
24953 H 5.210367327481379 3.7764138801764204 31.641004887250794 H 0.0 **** 0.06
24954 H 5.144635943251387 2.720607950491157 30.208638136903524 H 0.0 **** 0.06
24955 H 6.15475627873289 2.267339371968859 31.603616217779944 H 0.0 **** 0.06
24956 C 69.89138236938243 107.16282566964877 101.20690876823286 C 0.0 **** -0.24
24957 H 69.40624961563454 108.13828138689044 101.2104920050946 H 0.0 **** 0.06
24958 H 69.13513316665218 106.38087800679557 101.28241773660908 H 0.0 **** 0.06
24959 H 70.57201592767329 107.0923696978144 102.05496975156544 H 0.0 **** 0.06
24960 H 70.45154389476974 107.03851384204349 100.27949340329606 H 0.0 **** 0.06
24961 C 40.75123043248975 109.63706237382124 95.9046187718719 C 0.0 **** -0.24
24962 H 40.47402763404266 109.04955300296291 95.02932173387907 H 0.0 **** 0.06
24963 H 41.8337905020685 109.76719488715293 95.92575755015318 H 0.0 **** 0.06
24964 H 40.43017697604414 109.11782685803968 96.80786665375307 H 0.0 **** 0.06
24965 H 40.26861745742114 110.61342592283424 95.85524751439853 H 0.0 **** 0.06
24966 C 48.29659122680653 8.950022487850752 58.54660170493702 C 0.0 **** -0.24
24967 H 48.00885649049448 9.241149326065308 57.536190174398655 H 0.0 **** 0.06
24968 H 49.35068347863776 9.175229390421013 58.7024632369172 H 0.0 **** 0.06
24969 H 48.12932040028146 7.880873646267732 58.67678147967354 H 0.0 **** 0.06
24970 H 47.695078642127584 9.501726623382382 59.26834865172941 H 0.0 **** 0.06
24971 C 92.57336124326008 114.57729353235692 50.720898236307306 C 0.0 **** -0.24
24972 H 93.06543631780653 114.33518282408923 49.779094084655185 H 0.0 **** 0.06
24973 H 92.79143290729561 115.6119949279904 50.989997597190126 H 0.0 **** 0.06
24974 H 92.94029837027645 113.91351926787024 51.50435626222523 H 0.0 **** 0.06
24975 H 91.49639931241128 114.44956211014704 50.61148964834274 H 0.0 **** 0.06
24976 C 11.434539863442751 56.59903931660307 7.17532295465881 C 0.0 **** -0.24
24977 H 12.314447758151573 55.973217069873925 7.325992109837301 H 0.0 **** 0.06
24978 H 10.629551889280776 56.25701718978743 7.827531440305364 H 0.0 **** 0.06
24979 H 11.113446062977857 56.5292693273031 6.1352750888979415 H 0.0 **** 0.06
24980 H 11.678797061466014 57.63380191379801 7.4110117751054645 H 0.0 **** 0.06
24981 C 94.32458112428202 17.61803057202622 7.821855723541736 C 0.0 **** -0.24
24982 H 94.16013872761738 18.69382017412336 7.751264965477878 H 0.0 **** 0.06
24983 H 94.34052380102827 17.32160329781391 8.87150393014312 H 0.0 **** 0.06
24984 H 95.2781981457515 17.36611907065235 7.358446943983772 H 0.0 **** 0.06
24985 H 93.52037243737425 17.093161466047025 7.30779126008766 H 0.0 **** 0.06
24986 C 96.42607458264477 9.027654658221024 62.24176210948433 C 0.0 **** -0.24
24987 H 96.68523952979506 9.042259565412849 61.18290007527777 H 0.0 **** 0.06
24988 H 96.5875145714236 8.026812403800648 62.641167190480886 H 0.0 **** 0.06
24989 H 95.37813639329958 9.303441629345514 62.36221827741818 H 0.0 **** 0.06
24990 H 97.05294880365058 9.739631325971004 62.7791944536971 H 0.0 **** 0.06
24991 C 15.02671932587343 13.088520289813289 71.66370730160517 C 0.0 **** -0.24
24992 H 14.527386694682729 12.770143966504861 72.57856027816987 H 0.0 **** 0.06
24993 H 15.015700191201095 14.17725826553692 71.6046581551712 H 0.0 **** 0.06
24994 H 14.505158050483274 12.671844103366993 70.8020105165158 H 0.0 **** 0.06
24995 H 16.057706541640112 12.735080294261707 71.67064078775837 H 0.0 **** 0.06
24996 C 29.75084929192957 50.33810409513069 16.346916660023552 C 0.0 **** -0.24
24997 H 28.911562940305174 50.591059843345704 16.993848105896944 H 0.0 **** 0.06
24998 H 29.46004097970672 49.53238232887145 15.672438678362667 H 0.0 **** 0.06
24999 H 30.59501842507808 50.01476097854032 16.95708740340615 H 0.0 **** 0.06
25000 H 30.03830516338843 51.21379094150558 15.764985200845246 H 0.0 **** 0.06
25001 C 59.642324896125956 57.19455103935236 61.097403161223525 C 0.0 **** -0.24
25002 H 59.64837770478 56.368838169946926 61.8096778525024 H 0.0 **** 0.06
25003 H 59.29090257342217 56.83569197466974 60.129547733389245 H 0.0 **** 0.06
25004 H 60.650816989217574 57.59294908610012 60.993966435670686 H 0.0 **** 0.06
25005 H 58.976665089664735 57.97890801629188 61.457924616670255 H 0.0 **** 0.06
25006 C 41.943859080340424 23.24472257940707 85.22650788647906 C 0.0 **** -0.24
25007 H 42.19460788726396 23.688090058731984 86.19014467749241 H 0.0 **** 0.06
25008 H 40.940876242841924 22.821099223275365 85.27164321526612 H 0.0 **** 0.06
25009 H 42.66154036321222 22.45831242752524 84.99127556432515 H 0.0 **** 0.06
25010 H 41.9802765728219 24.012325114706012 84.45425106328798 H 0.0 **** 0.06
25011 C 7.026065787991463 66.74391253430377 71.58314516583988 C 0.0 **** -0.24
25012 H 7.666134041570485 65.87185465071623 71.7153314229904 H 0.0 **** 0.06
25013 H 7.635232887921497 67.60186895347482 71.29922481923555 H 0.0 **** 0.06
25014 H 6.509119608177496 66.95958811793341 72.51840088693223 H 0.0 **** 0.06
25015 H 6.294300493377801 66.54184785893668 70.80174136084167 H 0.0 **** 0.06
25016 C 57.36442186627431 15.46624413072027 60.1274454897146 C 0.0 **** -0.24
25017 H 57.15097144401193 16.227187027937305 60.87765501987157 H 0.0 **** 0.06
25018 H 57.18442346004343 14.477476797088798 60.55212586274685 H 0.0 **** 0.06
25019 H 58.40623763888192 15.544449456095833 59.81647863857653 H 0.0 **** 0.06
25020 H 56.71481596168195 15.614114677080408 59.264161016404685 H 0.0 **** 0.06
25021 C 0.4605603070879738 67.50467236288961 6.315830254868425 C 0.0 **** -0.24
25022 H -0.09326006943763332 67.20664163695977 5.426496157146996 H 0.0 **** 0.06
25023 H 1.5291865140864616 67.49500421373986 6.09900505875728 H 0.0 **** 0.06
25024 H 0.2476563909725087 66.80688280223728 7.126557882459389 H 0.0 **** 0.06
25025 H 0.15762617684930547 68.50904736707253 6.613184196255073 H 0.0 **** 0.06
25026 C 17.20320395451988 74.1795063034232 67.39592556776824 C 0.0 **** -0.24
25027 H 16.706035005531465 74.85612664136706 68.09008076438181 H 0.0 **** 0.06
25028 H 16.457054642374437 73.68880413578266 66.7710254665318 H 0.0 **** 0.06
25029 H 17.7594989398423 73.42783407872305 67.95634892155476 H 0.0 **** 0.06
25030 H 17.890227230331337 74.74526035782011 66.76624711860461 H 0.0 **** 0.06
25031 C 74.89138322862203 107.68593658978904 29.188057369512393 C 0.0 **** -0.24
25032 H 75.1352100805882 107.00802851994445 28.37005390289857 H 0.0 **** 0.06
25033 H 74.45240288999986 107.12026846472506 30.009590911270635 H 0.0 **** 0.06
25034 H 74.17955910246246 108.43458150285858 28.84045162239461 H 0.0 **** 0.06
25035 H 75.80017924918329 108.18116735433952 29.53135591162311 H 0.0 **** 0.06
25036 C 11.176305712168428 94.96058869878837 109.9770959435423 C 0.0 **** -0.24
25037 H 10.781293670847262 94.4378154788314 110.8476211569264 H 0.0 **** 0.06
25038 H 12.078297117534376 94.45624859199155 109.62898938855707 H 0.0 **** 0.06
25039 H 11.417894282769495 95.9880074126776 110.24896041254009 H 0.0 **** 0.06
25040 H 10.429841826351094 94.96011955089845 109.1835520354998 H 0.0 **** 0.06
25041 C 76.29680291372811 23.77799805265292 41.0859210368817 C 0.0 **** -0.24
25042 H 76.61193244953691 23.21447564012712 40.207804636940864 H 0.0 **** 0.06
25043 H 75.62000952348066 24.57747560472356 40.78097673982279 H 0.0 **** 0.06
25044 H 77.1710494264585 24.208370188004636 41.57530275546145 H 0.0 **** 0.06
25045 H 75.78337219412767 23.11217907641722 41.7794500774819 H 0.0 **** 0.06
25046 C 63.70257807106303 24.023735178819976 75.15697467764255 C 0.0 **** -0.24
25047 H 64.57155505490712 24.17664721697298 75.79681251061129 H 0.0 **** 0.06
25048 H 64.03086800501416 23.876957151266367 74.12812217607569 H 0.0 **** 0.06
25049 H 63.05363638044314 24.8971230747745 75.21073104160666 H 0.0 **** 0.06
25050 H 63.15570366186449 23.14306232721171 75.492988416012 H 0.0 **** 0.06
25051 C 2.827884792176775 17.568539890607298 55.60995737974724 C 0.0 **** -0.24
25052 H 2.587926651657 17.291149125621715 56.636294554630084 H 0.0 **** 0.06
25053 H 1.9153440347786272 17.858190582518134 55.088087236328676 H 0.0 **** 0.06
25054 H 3.284021081843548 16.718399047338693 55.10134567655182 H 0.0 **** 0.06
25055 H 3.5256543036689294 18.40639326769164 55.61396070586287 H 0.0 **** 0.06
25056 C 112.7676336663794 103.6179665648691 50.33161960433366 C 0.0 **** -0.24
25057 H 112.66705039108405 104.54835235068715 49.77363144085568 H 0.0 **** 0.06
25058 H 113.33524704047903 103.80219323187852 51.244843158839664 H 0.0 **** 0.06
25059 H 113.28967059149966 102.88183531753442 49.72071473284792 H 0.0 **** 0.06
25060 H 111.77833699988457 103.24076565014661 50.588432890028365 H 0.0 **** 0.06
25061 C 53.88831555653537 42.12094931544357 46.94290525757342 C 0.0 **** -0.24
25062 H 54.643027874744234 41.40365115802433 46.62313952298923 H 0.0 **** 0.06
25063 H 53.80450964461611 42.91527358499616 46.19978871413775 H 0.0 **** 0.06
25064 H 54.176822620669476 42.549555783497226 47.90276344136988 H 0.0 **** 0.06
25065 H 52.92776614942254 41.61613495652625 47.04490938494547 H 0.0 **** 0.06
25066 C 41.666648378266245 73.38627379222106 64.79284608156695 C 0.0 **** -0.24
25067 H 41.432043674299706 74.32711414445367 65.29047405953925 H 0.0 **** 0.06
25068 H 41.506151455213235 72.55944658668056 65.4838171319091 H 0.0 **** 0.06
25069 H 42.708724217048164 73.39501438994574 64.47197359766223 H 0.0 **** 0.06
25070 H 41.020831156680615 73.26514986179711 63.92311815389154 H 0.0 **** 0.06
25071 C 42.93185690720708 104.13413602820167 69.13762645376994 C 0.0 **** -0.24
25072 H 42.32929015144765 104.88117505749034 69.65331094046621 H 0.0 **** 0.06
25073 H 43.160148057833624 104.48367357243252 68.13063081178058 H 0.0 **** 0.06
25074 H 42.37798956141859 103.19653905839363 69.08115970932033 H 0.0 **** 0.06
25075 H 43.86079022975798 103.97501194973492 69.68656820636255 H 0.0 **** 0.06
25076 C 59.117940433249885 115.39960940262742 43.57777715851293 C 0.0 **** -0.24
25077 H 58.815902916530945 115.17173105830412 42.55609507022547 H 0.0 **** 0.06
25078 H 58.591168742529334 114.74045187492894 44.2679977823212 H 0.0 **** 0.06
25079 H 58.87043947239863 116.43648631911424 43.80608421240419 H 0.0 **** 0.06
25080 H 60.19209030601877 115.25184261080517 43.68075518602089 H 0.0 **** 0.06
25081 C 15.650782175799975 8.775155724521468 0.26820493700334147 C 0.0 **** -0.24
25082 H 16.050204486599057 8.983100735100052 1.2610444343473368 H 0.0 **** 0.06
25083 H 14.759364453321666 9.381012431662938 0.10108601322547628 H 0.0 **** 0.06
25084 H 15.391119636568646 7.718454997199302 0.19655611506615678 H 0.0 **** 0.06
25085 H 16.401726984710194 9.016128709346418 -0.48346214715011193 H 0.0 **** 0.06
25086 C 15.910923923243864 105.06736301400343 40.47321751250132 C 0.0 **** -0.24
25087 H 15.015312072106482 105.51336870235224 40.04176433948294 H 0.0 **** 0.06
25088 H 15.866553681099955 105.14348340573724 41.56051077003053 H 0.0 **** 0.06
25089 H 16.79145837919876 105.5946726756502 40.10708623883721 H 0.0 **** 0.06
25090 H 15.96887493784542 104.01788522839831 40.185169616174505 H 0.0 **** 0.06
25091 C 113.3370849086723 96.69686030003318 67.46552979524196 C 0.0 **** -0.24
25092 H 114.34124200099453 96.27403435859888 67.45726789770401 H 0.0 **** 0.06
25093 H 112.6176227036257 95.91671945597002 67.71621686947707 H 0.0 **** 0.06
25094 H 113.10557293409707 97.10275743659419 66.48068143930801 H 0.0 **** 0.06
25095 H 113.28440649288476 97.49191194887818 68.20877361008972 H 0.0 **** 0.06
25096 C 109.6740904781215 78.53145577131824 15.13625428335834 C 0.0 **** -0.24
25097 H 109.34825038336223 78.56868795084826 16.175966059532993 H 0.0 **** 0.06
25098 H 108.91175941634329 78.98347698656606 14.501108810539499 H 0.0 **** 0.06
25099 H 109.82584451560847 77.49353327551935 14.841094799690538 H 0.0 **** 0.06
25100 H 110.60950463912584 79.08003291550837 15.028843936412017 H 0.0 **** 0.06
25101 C 108.76059330209242 50.313141284958135 50.970371445983005 C 0.0 **** -0.24
25102 H 109.49730613425625 50.86645203856625 51.55191758317443 H 0.0 **** 0.06
25103 H 108.08015301362009 49.79369673300732 51.64506909809484 H 0.0 **** 0.06
25104 H 109.26894059498038 49.58611423204297 50.33686433438635 H 0.0 **** 0.06
25105 H 108.19518227772998 51.00604542890488 50.34649098640381 H 0.0 **** 0.06
25106 C 18.270219993721724 59.93175570195643 59.32653642327084 C 0.0 **** -0.24
25107 H 17.727470816282224 59.02487812415578 59.06051776890985 H 0.0 **** 0.06
25108 H 19.32964569008876 59.70120771599608 59.440945355879336 H 0.0 **** 0.06
25109 H 17.880012839461436 60.32583506497224 60.26498695201491 H 0.0 **** 0.06
25110 H 18.142197488555937 60.6743451356125 58.53957221145366 H 0.0 **** 0.06
25111 C 55.49913497820383 87.98850357039383 21.394781350967662 C 0.0 **** -0.24
25112 H 55.192858818283725 88.873440717262 21.95130056042987 H 0.0 **** 0.06
25113 H 54.61865063604021 87.40044797412352 21.134052475651004 H 0.0 **** 0.06
25114 H 56.1688042721665 87.38626558738225 22.009667573716484 H 0.0 **** 0.06
25115 H 56.016794810172016 88.29225519208573 20.484423259227697 H 0.0 **** 0.06
25116 C 46.35704321310473 62.903843298781695 49.865678071363895 C 0.0 **** -0.24
25117 H 46.480907058526014 63.03257896678511 50.941109822115536 H 0.0 **** 0.06
25118 H 46.31018513045882 61.84055484829449 49.6293465768353 H 0.0 **** 0.06
25119 H 47.20366687699226 63.35441710136536 49.34717522229111 H 0.0 **** 0.06
25120 H 45.43508944767953 63.389347333180666 49.54601163648297 H 0.0 **** 0.06
25121 C 36.861099282801064 13.534052528172122 101.75297400064836 C 0.0 **** -0.24
25122 H 37.79900570391044 14.020241275201194 102.02244131474262 H 0.0 **** 0.06
25123 H 36.091489032736796 13.804365355671866 102.47623371438402 H 0.0 **** 0.06
25124 H 36.99847312840143 12.45259277049946 101.75610325033055 H 0.0 **** 0.06
25125 H 36.556566693843976 13.85925042065399 100.75902798018633 H 0.0 **** 0.06
25126 C 47.81187358525489 70.6505011346153 19.8321169382059 C 0.0 **** -0.24
25127 H 47.11585585029641 71.46162557907584 19.61862690752966 H 0.0 **** 0.06
25128 H 47.498818948965294 69.75272134417877 19.298850763817114 H 0.0 **** 0.06
25129 H 47.819847784423075 70.4525849573205 20.904741405179607 H 0.0 **** 0.06
25130 H 48.81323507995455 70.93551387109423 19.508424975085177 H 0.0 **** 0.06
25131 C 56.53881167644812 52.04529835845156 96.25945262007968 C 0.0 **** -0.24
25132 H 57.30500499702811 52.53946814253822 96.85638272025983 H 0.0 **** 0.06
25133 H 56.42688619551183 51.013972044172725 96.59368496628014 H 0.0 **** 0.06
25134 H 56.83264051248079 52.057641287844554 95.20982943689125 H 0.0 **** 0.06
25135 H 55.59071500077221 52.57011195925073 96.37791335688729 H 0.0 **** 0.06
25136 C 54.293134101640874 84.87037453958689 59.93959624119918 C 0.0 **** -0.24
25137 H 53.45826084658529 85.5707232639017 59.926037378261256 H 0.0 **** 0.06
25138 H 53.93246304782741 83.88151603561647 60.22570443703931 H 0.0 **** 0.06
25139 H 55.03936899027116 85.20754024434746 60.659610395117056 H 0.0 **** 0.06
25140 H 54.74166268682586 84.81976130744047 58.94778077180858 H 0.0 **** 0.06
25141 C 7.299082058217834 35.471362553056025 69.73777981572633 C 0.0 **** -0.24
25142 H 6.639154736463013 34.963206485092286 70.44154323215099 H 0.0 **** 0.06
25143 H 6.716184517116687 36.157680371911965 69.12419867548527 H 0.0 **** 0.06
25144 H 7.783586709511155 34.73358036000252 69.09878514311842 H 0.0 **** 0.06
25145 H 8.05659069135254 36.0287823068019 70.28893719326737 H 0.0 **** 0.06
25146 C 47.47749881452026 89.34096191040133 35.7290625404255 C 0.0 **** -0.24
25147 H 47.58153068507153 88.2561233573005 35.74750797487968 H 0.0 **** 0.06
25148 H 48.15875800030068 89.75811570777525 34.987544382642454 H 0.0 **** 0.06
25149 H 47.71702430300286 89.74581076984224 36.71238675000177 H 0.0 **** 0.06
25150 H 46.45162448701643 89.60216034001397 35.468363811376065 H 0.0 **** 0.06
25151 C 87.88482639852788 44.646703579481226 96.03883853955597 C 0.0 **** -0.24
25152 H 87.13827194867503 44.0102456979364 95.5644817806859 H 0.0 **** 0.06
25153 H 88.87873262644605 44.23389446967619 95.86270316460204 H 0.0 **** 0.06
25154 H 87.69505887625583 44.69357892606945 97.11092226453633 H 0.0 **** 0.06
25155 H 87.82779984469083 45.650027373342795 95.61634131033259 H 0.0 **** 0.06
25156 C 103.48368630792362 113.19793574135163 104.3699941244954 C 0.0 **** -0.24
25157 H 103.41975317885564 112.65228082091116 103.42838813650785 H 0.0 **** 0.06
25158 H 103.00289979842245 112.61821428856938 105.1586695890336 H 0.0 **** 0.06
25159 H 102.98060647880155 114.15951341837832 104.26767787136512 H 0.0 **** 0.06
25160 H 104.5307103808456 113.36122616369569 104.62561570436328 H 0.0 **** 0.06
25161 C 45.03641917605336 47.70891079777002 62.91602290995574 C 0.0 **** -0.24
25162 H 45.4946556856936 46.95896813797919 63.56157687444815 H 0.0 **** 0.06
25163 H 44.06025525480095 47.98377670801333 63.31523371654838 H 0.0 **** 0.06
25164 H 44.91781957499643 47.30027142074288 61.913361725684595 H 0.0 **** 0.06
25165 H 45.67454829418273 48.59099788152603 62.875586636095676 H 0.0 **** 0.06
25166 C 98.10610052849499 115.00876253217024 53.33699434833258 C 0.0 **** -0.24
25167 H 97.63067473873352 114.06383460591724 53.072905123762496 H 0.0 **** 0.06
25168 H 98.43918945244754 115.51308841553364 52.42934200056334 H 0.0 **** 0.06
25169 H 98.96294543430065 114.81663578017765 53.98122843679235 H 0.0 **** 0.06
25170 H 97.38971649891143 115.64072735845218 53.86207333809696 H 0.0 **** 0.06
25171 C 81.39729808887 14.249036182176525 105.37085597137532 C 0.0 **** -0.24
25172 H 80.97782774578309 13.37001885259917 105.85999777844386 H 0.0 **** 0.06
25173 H 81.90375494741265 14.869264648014273 106.11072669148784 H 0.0 **** 0.06
25174 H 80.59569615293026 14.820968661824743 104.904087187629 H 0.0 **** 0.06
25175 H 82.11121472514093 13.934667581447744 104.60850627258361 H 0.0 **** 0.06
25176 C 94.55541922365063 20.463798520104547 26.51323035081373 C 0.0 **** -0.24
25177 H 94.55432951279408 19.74751220836137 25.691490550854155 H 0.0 **** 0.06
25178 H 94.6786883290653 21.47147035765107 26.115793846146744 H 0.0 **** 0.06
25179 H 95.37948042561052 20.23752267892914 27.19082536831729 H 0.0 **** 0.06
25180 H 93.61185195252949 20.397711160603023 27.05386401199621 H 0.0 **** 0.06
25181 C 115.42986858181689 114.70961870140748 111.31488983494938 C 0.0 **** -0.24
25182 H 116.09079948803601 113.8953923330531 111.01873568887142 H 0.0 **** 0.06
25183 H 115.96571626357539 115.39006261524423 111.97566197394487 H 0.0 **** 0.06
25184 H 114.5630511361834 114.3030205629745 111.83599350210031 H 0.0 **** 0.06
25185 H 115.0989771408101 115.24929286412299 110.4272614014202 H 0.0 **** 0.06
25186 C 28.31247078705971 75.71769929874432 70.47335188392582 C 0.0 **** -0.24
25187 H 27.458551273104945 75.51855310350166 69.82483751631153 H 0.0 **** 0.06
25188 H 27.975322592668817 75.78153494486641 71.5083348338763 H 0.0 **** 0.06
25189 H 28.77652072419086 76.6593178203752 70.18309223514255 H 0.0 **** 0.06
25190 H 29.037262769551845 74.909790167011 70.37592530285995 H 0.0 **** 0.06
25191 C 64.40996229530333 105.71107240772068 64.64305275490915 C 0.0 **** -0.24
25192 H 63.52624752085558 105.30169165263383 64.1529260500775 H 0.0 **** 0.06
25193 H 65.23775941228092 105.00826089234945 64.54614822245327 H 0.0 **** 0.06
25194 H 64.19525119464697 105.87673217783065 65.69931626485146 H 0.0 **** 0.06
25195 H 64.67902530685336 106.65708150920517 64.17434456419068 H 0.0 **** 0.06
25196 C 69.18424323529129 21.08550625337267 29.57298929436797 C 0.0 **** -0.24
25197 H 68.7387026358019 20.97801717291796 30.562300805188045 H 0.0 **** 0.06
25198 H 68.4487207684528 21.50538674210773 28.887310365932876 H 0.0 **** 0.06
25199 H 69.50386431749251 20.107955086764235 29.210732913787467 H 0.0 **** 0.06
25200 H 70.04633741731999 21.75013135105266 29.63391290061213 H 0.0 **** 0.06
25201 C 102.36536936641758 64.34804446202111 43.179823273330186 C 0.0 **** -0.24
25202 H 101.93971770252062 64.64785409217615 42.221948840821 H 0.0 **** 0.06
25203 H 101.65609378384505 63.71135970531964 43.70912399209584 H 0.0 **** 0.06
25204 H 102.57439567906744 65.23583760918478 43.77839239985195 H 0.0 **** 0.06
25205 H 103.29124873106662 63.799323362152336 43.01024422374218 H 0.0 **** 0.06
25206 C 89.02097006250118 76.245772530958 6.022601837943682 C 0.0 **** -0.24
25207 H 89.24940879289703 75.24570696244915 6.3885773209097465 H 0.0 **** 0.06
25208 H 89.37893020262715 76.34809768376907 4.997515144255061 H 0.0 **** 0.06
25209 H 89.51319003406437 76.98525039552244 6.655105278377647 H 0.0 **** 0.06
25210 H 87.9433638650427 76.40498508985125 6.048941001007137 H 0.0 **** 0.06
25211 C 61.4400484103264 76.96904777118385 88.18307968903473 C 0.0 **** -0.24
25212 H 62.09146438404582 76.11049548996561 88.01747531738032 H 0.0 **** 0.06
25213 H 61.53200806701528 77.29925193704929 89.2187583550904 H 0.0 **** 0.06
25214 H 60.40704135609704 76.68579791350703 87.98172059316529 H 0.0 **** 0.06
25215 H 61.732446999986934 77.78022053402168 87.51583505438502 H 0.0 **** 0.06
25216 C 22.666187149816935 61.71392655465873 102.07319616461977 C 0.0 **** -0.24
25217 H 23.046859961269845 61.306905929829384 103.00977875921377 H 0.0 **** 0.06
25218 H 22.575107879137178 60.911826218950964 101.33918778299014 H 0.0 **** 0.06
25219 H 23.354744690359368 62.47238027289461 101.70007547090006 H 0.0 **** 0.06
25220 H 21.6881307005566 62.16298081888786 102.24436675842506 H 0.0 **** 0.06
25221 C 74.82214363418 19.589651348170662 91.44871635610195 C 0.0 **** -0.24
25222 H 74.47688434804651 20.350887240538583 90.74864097822791 H 0.0 **** 0.06
25223 H 74.92656029271207 18.63774776289847 90.92704180194289 H 0.0 **** 0.06
25224 H 74.09745194978609 19.48432189729195 92.25591720401172 H 0.0 **** 0.06
25225 H 75.78572370332736 19.88595331442218 91.86222222286383 H 0.0 **** 0.06
25226 C 69.1540126985302 46.4372778979409 84.39429222508647 C 0.0 **** -0.24
25227 H 69.3102214863881 45.36020792379637 84.45399680014988 H 0.0 **** 0.06
25228 H 68.25833789008271 46.70656116588796 84.95343949806244 H 0.0 **** 0.06
25229 H 69.03372961934845 46.7303652792655 83.35116167529465 H 0.0 **** 0.06
25230 H 70.01597901954074 46.95280108989377 84.81793412688329 H 0.0 **** 0.06
25231 C 49.900881322870816 49.01591339524617 96.02399907079074 C 0.0 **** -0.24
25232 H 50.00817030762096 48.05144803223192 95.52602991412851 H 0.0 **** 0.06
25233 H 50.48311491005961 49.01572698952478 96.94502106967191 H 0.0 **** 0.06
25234 H 48.85049818720091 49.18852531231249 96.25699887319281 H 0.0 **** 0.06
25235 H 50.26137118678378 49.80656239676739 95.36551156017622 H 0.0 **** 0.06
25236 C 23.87108783212895 67.8844222103553 89.79296599832729 C 0.0 **** -0.24
25237 H 23.176225159648055 67.06626679718806 89.98082793280462 H 0.0 **** 0.06
25238 H 23.69402574976651 68.68336635960532 90.51476303666632 H 0.0 **** 0.06
25239 H 23.717726815833302 68.26646534328347 88.78402994531426 H 0.0 **** 0.06
25240 H 24.893649752387503 67.523302161007 89.89387128275892 H 0.0 **** 0.06
25241 C 87.84450513358735 41.990097011912276 99.70733736734951 C 0.0 **** -0.24
25242 H 88.33700348250846 41.15734690604183 100.20917118255227 H 0.0 **** 0.06
25243 H 88.47763615833537 42.34970905864475 98.8950037247676 H 0.0 **** 0.06
25244 H 87.67718744752887 42.7965135572797 100.42149541291383 H 0.0 **** 0.06
25245 H 86.88861322814688 41.65643803602443 99.30369408374241 H 0.0 **** 0.06
25246 C 41.065285381888856 94.2872533061161 64.5496202091033 C 0.0 **** -0.24
25247 H 41.09943764450577 95.10978360820792 65.26334005839783 H 0.0 **** 0.06
25248 H 40.42644293368221 94.56202289886636 63.71000804995856 H 0.0 **** 0.06
25249 H 40.66253764175525 93.39922267705145 65.03677256193714 H 0.0 **** 0.06
25250 H 42.0715423454854 94.07865287427182 64.18796254400218 H 0.0 **** 0.06
25251 C 71.25510041897402 105.62227444972577 93.85817534340393 C 0.0 **** -0.24
25252 H 70.42455202414806 104.91645520935246 93.84655126203263 H 0.0 **** 0.06
25253 H 71.916280650744 105.39206865686495 94.69420142226289 H 0.0 **** 0.06
25254 H 70.86987826140648 106.63567499758706 93.96842841879979 H 0.0 **** 0.06
25255 H 71.8109038600249 105.54437808733152 92.92301315105107 H 0.0 **** 0.06
25256 C 111.92407513845707 6.559270315956642 60.78128589823275 C 0.0 **** -0.24
25257 H 111.3545068870937 6.030903326780512 61.545922344016816 H 0.0 **** 0.06
25258 H 111.81120205300424 6.0463633238403816 59.82539692991739 H 0.0 **** 0.06
25259 H 112.97691685556622 6.579345432701581 61.06231587625277 H 0.0 **** 0.06
25260 H 111.55156075235827 7.580017079253183 60.69208016664787 H 0.0 **** 0.06
25261 C 74.3104972497182 35.43770413326595 44.656839662007826 C 0.0 **** -0.24
25262 H 74.83272168083977 35.89113428788127 43.813876235660246 H 0.0 **** 0.06
25263 H 74.8748080725253 34.57577581501218 45.01285289793378 H 0.0 **** 0.06
25264 H 73.31830580829632 35.11742197448487 44.338833310955124 H 0.0 **** 0.06
25265 H 74.21657734499126 36.16854328304481 45.46053847804666 H 0.0 **** 0.06
25266 C 68.8662669626749 62.35153518223996 62.46988722720336 C 0.0 **** -0.24
25267 H 68.01515862460644 61.68001147327706 62.359773547510684 H 0.0 **** 0.06
25268 H 69.7301373118697 61.928610608324774 61.957771675088935 H 0.0 **** 0.06
25269 H 69.0952938777802 62.47748352134508 63.5281708622872 H 0.0 **** 0.06
25270 H 68.62305791603805 63.32063514097557 62.032558670274966 H 0.0 **** 0.06
25271 C 54.24780497776346 46.71726082560784 41.47121974595751 C 0.0 **** -0.24
25272 H 53.995565571681816 45.735010366447824 41.87095575741114 H 0.0 **** 0.06
25273 H 53.837771849910474 47.48980531153421 42.121939671672294 H 0.0 **** 0.06
25274 H 53.82456376616856 46.82145065121233 40.47158732520063 H 0.0 **** 0.06
25275 H 55.3309174383954 46.822344867747034 41.42017838359516 H 0.0 **** 0.06
25276 C 31.521652396576826 90.27002902041775 113.68779517495611 C 0.0 **** -0.24
25277 H 32.13903100516745 89.86523532785509 112.88536366997113 H 0.0 **** 0.06
25278 H 31.859311595685767 91.27819334523915 113.9321568502464 H 0.0 **** 0.06
25279 H 31.607430810518736 89.63410608486133 114.56847082173084 H 0.0 **** 0.06
25280 H 30.481478985314993 90.30355545512145 113.36328196511917 H 0.0 **** 0.06
25281 C 59.184646411590506 97.57557386158244 114.29297690225539 C 0.0 **** -0.24
25282 H 58.90498429835134 98.2166532804868 113.45715705482814 H 0.0 **** 0.06
25283 H 58.42771909322704 97.64781142074506 115.07522969780098 H 0.0 **** 0.06
25284 H 60.14894011151324 97.89364813553296 114.68949421536982 H 0.0 **** 0.06
25285 H 59.255692434052435 96.54298727611625 113.94992878703721 H 0.0 **** 0.06
25286 C 22.067017567128357 13.62021115755158 70.3925872850011 C 0.0 **** -0.24
25287 H 21.13154895193497 13.937652525821022 69.93079939039694 H 0.0 **** 0.06
25288 H 21.991989665477046 13.729039602154273 71.4754445464311 H 0.0 **** 0.06
25289 H 22.883276728071948 14.239145390238946 70.02140822206962 H 0.0 **** 0.06
25290 H 22.259670625630925 12.5771069949906 70.14445227645689 H 0.0 **** 0.06
25291 C 77.83247470476269 43.79110967753586 88.3937567667545 C 0.0 **** -0.24
25292 H 77.79320352129345 43.86585561773085 89.48031295569442 H 0.0 **** 0.06
25293 H 77.4383249447454 42.82369435461668 88.08241913964105 H 0.0 **** 0.06
25294 H 78.86629795901004 43.886411538170066 88.06082190300992 H 0.0 **** 0.06
25295 H 77.23405587101516 44.58816956979008 87.95245869899523 H 0.0 **** 0.06
25296 C 71.89446973805411 51.71362465748928 110.10622647217967 C 0.0 **** -0.24
25297 H 72.81571158201206 52.21695747811443 109.8126228308459 H 0.0 **** 0.06
25298 H 71.31554792645221 52.368233670992936 110.75854019324831 H 0.0 **** 0.06
25299 H 72.1372314864708 50.79347493312268 110.63743994620594 H 0.0 **** 0.06
25300 H 71.31070243385415 51.47691595478699 109.21661684686367 H 0.0 **** 0.06
25301 C 91.31548567244789 21.91743016958094 50.270433889484195 C 0.0 **** -0.24
25302 H 91.67746554207838 21.088408105766575 50.87939004924016 H 0.0 **** 0.06
25303 H 90.56497808617456 21.55202286096994 49.5689095047299 H 0.0 **** 0.06
25304 H 92.14935054988132 22.352547330576613 49.71894588781578 H 0.0 **** 0.06
25305 H 90.87189133042835 22.67567132623043 50.91668464027856 H 0.0 **** 0.06
25306 C 105.61892480901092 99.62486512335181 65.63571123592345 C 0.0 **** -0.24
25307 H 105.33094878385285 99.04376019396568 66.51144715008746 H 0.0 **** 0.06
25308 H 106.34038683818099 99.05921371233325 65.04626695097062 H 0.0 **** 0.06
25309 H 106.06793796858219 100.56528719570167 65.9561782338942 H 0.0 **** 0.06
25310 H 104.73687048291453 99.83175791758129 65.03107167750693 H 0.0 **** 0.06
25311 C 47.94715792989234 28.676303085697754 84.92517047460535 C 0.0 **** -0.24
25312 H 48.16526727593259 28.395816369164976 83.89475839055748 H 0.0 **** 0.06
25313 H 48.13400672496175 27.825060872955348 85.58035504126786 H 0.0 **** 0.06
25314 H 46.90344992347548 28.97649117416117 85.00636250165488 H 0.0 **** 0.06
25315 H 48.589062721699634 29.507637065745115 85.21914103404862 H 0.0 **** 0.06
25316 C 77.15629553149665 39.27033776690037 63.56648587480062 C 0.0 **** -0.24
25317 H 76.36500978380536 39.97012239833924 63.83535366817527 H 0.0 **** 0.06
25318 H 76.92915722475092 38.81933240227116 62.60041190462711 H 0.0 **** 0.06
25319 H 77.22457265324303 38.490522792705235 64.32544531642668 H 0.0 **** 0.06
25320 H 78.10645104838832 39.80122029062059 63.506138517082974 H 0.0 **** 0.06
25321 C 55.18950299899984 30.77029696074625 49.52250197803329 C 0.0 **** -0.24
25322 H 55.918523967985266 30.82914987268056 48.71404335783461 H 0.0 **** 0.06
25323 H 55.70460078651064 30.81903241894306 50.48197458792026 H 0.0 **** 0.06
25324 H 54.642682311148064 29.83010898658776 49.45082727696507 H 0.0 **** 0.06
25325 H 54.49111792130657 31.6031720344643 49.441842576401484 H 0.0 **** 0.06
25326 C 16.73309474537232 35.59667686616678 110.90598163521705 C 0.0 **** -0.24
25327 H 16.080074727139284 35.92799832578351 111.71260758902244 H 0.0 **** 0.06
25328 H 16.336558421836255 35.94595594920788 109.95205465500716 H 0.0 **** 0.06
25329 H 16.782773104390014 34.50786101275746 110.90242546566851 H 0.0 **** 0.06
25330 H 17.732488014171544 36.00584209279502 111.05590994692729 H 0.0 **** 0.06
25331 C 26.568852767254725 17.196528506986994 48.228491308464015 C 0.0 **** -0.24
25332 H 26.584318800854476 18.20861515861057 48.63117963301647 H 0.0 **** 0.06
25333 H 25.951773925743396 17.171815565434827 47.33004177911744 H 0.0 **** 0.06
25334 H 26.153943816652088 16.51641349690584 48.972746452494164 H 0.0 **** 0.06
25335 H 27.5845293334786 16.888348047339548 47.98065776520849 H 0.0 **** 0.06
25336 C 18.425038792635917 75.57726348985011 22.455644211351654 C 0.0 **** -0.24
25337 H 18.64461338412258 75.39750146541354 23.507868590839593 H 0.0 **** 0.06
25338 H 18.58637977280955 74.66009824653224 21.8897170744861 H 0.0 **** 0.06
25339 H 19.081544452137905 76.35994762946311 22.076187519293256 H 0.0 **** 0.06
25340 H 17.386348091279245 75.89135695907254 22.3499725141655 H 0.0 **** 0.06
25341 C 37.088444309131006 83.3805641176913 40.32178677713452 C 0.0 **** -0.24
25342 H 36.33337710087554 83.21545371416623 41.08985485686665 H 0.0 **** 0.06
25343 H 38.04783642073818 83.58885051664332 40.79454470846497 H 0.0 **** 0.06
25344 H 36.79666393357735 84.22900499401774 39.70231451638978 H 0.0 **** 0.06
25345 H 37.174853119118154 82.48937408927213 39.6995830758176 H 0.0 **** 0.06
25346 C 107.74625596675111 78.77675400057342 106.94779619334601 C 0.0 **** -0.24
25347 H 108.37922637209715 77.90192060008661 106.7953048621958 H 0.0 **** 0.06
25348 H 106.70432689545765 78.50454676504938 106.77882402207103 H 0.0 **** 0.06
25349 H 108.03544031371763 79.56067130502578 106.24749150639792 H 0.0 **** 0.06
25350 H 107.86711385741262 79.1397422697101 107.96821983776225 H 0.0 **** 0.06
25351 C 77.31740120817574 115.4432289569963 58.933741179083725 C 0.0 **** -0.24
25352 H 77.98059563940774 115.4705880408493 58.068845109893545 H 0.0 **** 0.06
25353 H 77.88466367226607 115.1539431494164 59.81844201905865 H 0.0 **** 0.06
25354 H 76.522346237215 114.71728407609844 58.757899526743216 H 0.0 **** 0.06
25355 H 76.88015980055818 116.42992980289557 59.08748760348409 H 0.0 **** 0.06
25356 C 36.8590065965505 66.04672634776333 31.930297327513827 C 0.0 **** -0.24
25357 H 36.69714384595363 66.05486740279325 33.007767826641114 H 0.0 **** 0.06
25358 H 36.30195505477025 66.86618074585002 31.47350004389427 H 0.0 **** 0.06
25359 H 36.514038257614914 65.09917922620852 31.518070719361624 H 0.0 **** 0.06
25360 H 37.92170189355295 66.16922330411433 31.72151575512497 H 0.0 **** 0.06
25361 C 71.58913927632995 19.30280626001621 58.977058017059335 C 0.0 **** -0.24
25362 H 71.87870390608305 20.268491519299033 59.39054782062338 H 0.0 **** 0.06
25363 H 72.43327817824226 18.869376248995195 58.43974288334127 H 0.0 **** 0.06
25364 H 70.75316346761954 19.437571669861597 58.29080786049103 H 0.0 **** 0.06
25365 H 71.2908033390296 18.635546748745384 59.78552938562427 H 0.0 **** 0.06
25366 C 7.098647737728044 20.371558115036215 87.6685833547071 C 0.0 **** -0.24
25367 H 6.921492760634919 21.287698745990955 87.10536847430501 H 0.0 **** 0.06
25368 H 7.989789423582636 20.490041474447434 88.28512917998384 H 0.0 **** 0.06
25369 H 7.2419538708101925 19.541523291967245 86.97639903828315 H 0.0 **** 0.06
25370 H 6.239437018477759 20.1672657124598 88.3085475643473 H 0.0 **** 0.06
25371 C 46.41023249511042 20.11872234383761 24.966356856367966 C 0.0 **** -0.24
25372 H 47.444736162649605 19.792647029258077 25.07199104241775 H 0.0 **** 0.06
25373 H 46.08776350106919 20.60840786692811 25.885918960145545 H 0.0 **** 0.06
25374 H 45.77509259312353 19.253883170844478 24.772606737436305 H 0.0 **** 0.06
25375 H 46.33315080242082 20.818977817211206 24.13504271727672 H 0.0 **** 0.06
25376 C 49.82849238687195 6.552529980498349 111.00131258810258 C 0.0 **** -0.24
25377 H 50.726910450567196 6.252828943845685 110.4610479596618 H 0.0 **** 0.06
25378 H 49.36154105229013 5.673536892799035 111.44486767809906 H 0.0 **** 0.06
25379 H 49.1314998066729 7.026502329019223 110.31079679375921 H 0.0 **** 0.06
25380 H 50.09774881983829 7.257436726720499 111.78831579287606 H 0.0 **** 0.06
25381 C 36.618238735278055 21.523432646266166 91.69895562419563 C 0.0 **** -0.24
25382 H 36.33276193506515 21.996627545827728 92.63827991171138 H 0.0 **** 0.06
25383 H 35.86302682627206 21.73605524950028 90.94102471452894 H 0.0 **** 0.06
25384 H 36.694989542115025 20.44613361035302 91.84360905278643 H 0.0 **** 0.06
25385 H 37.581368019964344 21.91597526717152 91.37243940977399 H 0.0 **** 0.06
25386 C 24.825280757668786 0.43856788453403794 80.33678276324122 C 0.0 **** -0.24
25387 H 24.089999170258082 1.1014342629691924 79.87972067434174 H 0.0 **** 0.06
25388 H 25.175905120546958 0.8753172426306719 81.2725360308309 H 0.0 **** 0.06
25389 H 25.668570280176617 0.3078994025445212 79.65764643003166 H 0.0 **** 0.06
25390 H 24.366134936692845 -0.5290946015400237 80.53693503922761 H 0.0 **** 0.06
25391 C 57.4896785563767 16.822328486781146 7.344074035969186 C 0.0 **** -0.24
25392 H 57.59360491636967 15.73759417421121 7.359736531410704 H 0.0 **** 0.06
25393 H 58.00739560262866 17.224567107715302 6.472760798504282 H 0.0 **** 0.06
25394 H 57.923798369418066 17.24120966363506 8.251453809712672 H 0.0 **** 0.06
25395 H 56.43241539469349 17.08510731609016 7.292117027972694 H 0.0 **** 0.06
25396 C 12.624392497307099 92.8887345555099 84.95664771509368 C 0.0 **** -0.24
25397 H 12.823021385316025 91.89691919644349 85.36369249670423 H 0.0 **** 0.06
25398 H 13.501078501034726 93.52080357683852 85.09768654093841 H 0.0 **** 0.06
25399 H 11.771512446775404 93.3283681926552 85.47391403606844 H 0.0 **** 0.06
25400 H 12.401823075490938 92.80594207397564 83.8925397099668 H 0.0 **** 0.06
25401 C 52.81441727098962 113.01597141008692 100.70087795807669 C 0.0 **** -0.24
25402 H 52.12006910900408 112.92587405856467 101.53528406934922 H 0.0 **** 0.06
25403 H 53.082521132812076 112.02194275068472 100.34062111664059 H 0.0 **** 0.06
25404 H 53.71368745435123 113.53743302207826 101.03106058253819 H 0.0 **** 0.06
25405 H 52.343265467196204 113.5807480144932 99.89553269011604 H 0.0 **** 0.06
25406 C 57.56170541449532 12.28532762952807 81.5286044448199 C 0.0 **** -0.24
25407 H 56.48028443470888 12.390096698176166 81.44015293000069 H 0.0 **** 0.06
25408 H 57.79216601133277 11.424109288799656 82.15507742118734 H 0.0 **** 0.06
25409 H 57.97751369898643 13.186175312788862 81.97962712892087 H 0.0 **** 0.06
25410 H 57.99453861970211 12.142383826793576 80.53797681662274 H 0.0 **** 0.06
25411 C 111.93065816001305 13.189593001794634 81.10312661788171 C 0.0 **** -0.24
25412 H 112.91162178316671 12.8798809486631 81.46255161456054 H 0.0 **** 0.06
25413 H 111.64083736081894 14.118543757317582 81.59569238561738 H 0.0 **** 0.06
25414 H 111.19843226743598 12.41417159020375 81.33134693090642 H 0.0 **** 0.06
25415 H 111.97099311532 13.34627329058037 80.02559755385141 H 0.0 **** 0.06
25416 C 20.225287005200393 110.44990037875365 43.113906489884585 C 0.0 **** -0.24
25417 H 20.07814449858399 109.46669371418076 43.559126889613424 H 0.0 **** 0.06
25418 H 19.791390845473376 111.21129168865802 43.76271308441312 H 0.0 **** 0.06
25419 H 19.740056054284683 110.48386253432591 42.13806885300414 H 0.0 **** 0.06
25420 H 21.292356855224334 110.63891912714159 42.99575229065067 H 0.0 **** 0.06
25421 C 12.498710716921892 92.30441989476068 95.5782773002298 C 0.0 **** -0.24
25422 H 13.134364019721545 91.43139099558661 95.72057938024459 H 0.0 **** 0.06
25423 H 11.603816092310353 92.20727212315117 96.19238188042306 H 0.0 **** 0.06
25424 H 12.213001817539407 92.3783893652977 94.5290783267414 H 0.0 **** 0.06
25425 H 13.044276461329162 93.2025876383853 95.86973629358994 H 0.0 **** 0.06
25426 C 15.18798117679546 70.55667094507288 78.50563817414759 C 0.0 **** -0.24
25427 H 16.105380039187025 70.36722841979437 77.94774262100259 H 0.0 **** 0.06
25428 H 14.405654205694105 70.87976452197967 77.81950075773352 H 0.0 **** 0.06
25429 H 15.368285408864068 71.33669137888387 79.24549767027032 H 0.0 **** 0.06
25430 H 14.874742800267285 69.64263290783373 79.01035567201048 H 0.0 **** 0.06
25431 C 12.048144231772199 0.2272313472046612 99.4787912274213 C 0.0 **** -0.24
25432 H 11.670550914421085 1.1376068506168817 99.01160243237933 H 0.0 **** 0.06
25433 H 12.700418818957019 0.4899475967101843 100.31159467718419 H 0.0 **** 0.06
25434 H 12.609446082470527 -0.3505445173774113 98.74492012169166 H 0.0 **** 0.06
25435 H 11.21049303847073 -0.36596822745740987 99.84618790836313 H 0.0 **** 0.06
25436 C 0.892273990725613 102.88048555991253 32.50272806674483 C 0.0 **** -0.24
25437 H 0.2986252610823499 102.88264039410569 33.41765548297006 H 0.0 **** 0.06
25438 H 0.23789194057914642 103.0345088316559 31.64487697020205 H 0.0 **** 0.06
25439 H 1.4036080603164578 101.92351582703583 32.404285759177995 H 0.0 **** 0.06
25440 H 1.629000373704514 103.68327273696173 32.54709699293961 H 0.0 **** 0.06
25441 C 107.0968068459869 75.33575914150765 62.24870564496902 C 0.0 **** -0.24
25442 H 107.68240706338855 75.9814408555369 61.59331558121596 H 0.0 **** 0.06
25443 H 106.23327779235291 75.8850547701756 62.623534177405645 H 0.0 **** 0.06
25444 H 107.71556849878915 75.01434555508274 63.08740699964699 H 0.0 **** 0.06
25445 H 106.75903376139502 74.4628921310719 61.69017447254899 H 0.0 **** 0.06
25446 C 53.46503507153107 38.89493465327644 36.323618134518256 C 0.0 **** -0.24
25447 H 53.23798916510552 38.79177200909223 35.26268403635572 H 0.0 **** 0.06
25448 H 54.06583322636398 38.04668731279702 36.65047366217016 H 0.0 **** 0.06
25449 H 52.53518755744166 38.92211833384374 36.89249531975361 H 0.0 **** 0.06
25450 H 54.018992575895496 39.818573244903405 36.4885282211265 H 0.0 **** 0.06
25451 C 37.37895522791689 111.30893165799928 78.95352248933798 C 0.0 **** -0.24
25452 H 36.669253215350636 111.83152645637989 78.31184398049952 H 0.0 **** 0.06
25453 H 37.9332712231473 110.57907089627393 78.36184123159138 H 0.0 **** 0.06
25454 H 36.83951436835946 110.79719768247152 79.75026299069367 H 0.0 **** 0.06
25455 H 38.07297657015005 112.02818541907405 79.38678208634762 H 0.0 **** 0.06
25456 C 37.14117106684732 11.41071367965877 17.274333220235746 C 0.0 **** -0.24
25457 H 36.88172580642673 11.459094494443992 18.33230536370445 H 0.0 **** 0.06
25458 H 38.217750378153234 11.280543669768537 17.169541791639944 H 0.0 **** 0.06
25459 H 36.8378506023003 12.335993140374061 16.783322798778556 H 0.0 **** 0.06
25460 H 36.62606112017535 10.568350508767825 16.81194094041325 H 0.0 **** 0.06
25461 C 21.73122860897945 107.70683928486858 102.1720352229227 C 0.0 **** -0.24
25462 H 21.042653977869236 108.4506371236107 102.57149891412485 H 0.0 **** 0.06
25463 H 21.75789517934274 107.78312801769181 101.08487263280121 H 0.0 **** 0.06
25464 H 21.394922923452015 106.71030337489614 102.45895549623103 H 0.0 **** 0.06
25465 H 22.729312386432696 107.8820630186448 102.57350747315762 H 0.0 **** 0.06
25466 C 19.195337004170767 111.51483717634619 93.4711085961924 C 0.0 **** -0.24
25467 H 18.583829487058267 112.36920868861691 93.18183986421123 H 0.0 **** 0.06
25468 H 18.54790905979661 110.68486246087141 93.7551378486519 H 0.0 **** 0.06
25469 H 19.826273875606432 111.7896742060791 94.31687503733416 H 0.0 **** 0.06
25470 H 19.822716833823563 111.21575422068457 92.63184436466048 H 0.0 **** 0.06
25471 C 33.2675811038842 7.81129353814292 42.95293170464504 C 0.0 **** -0.24
25472 H 32.50383271797307 7.761601839308014 42.1758584914258 H 0.0 **** 0.06
25473 H 33.22310661748455 6.9088423423625045 43.56308287139902 H 0.0 **** 0.06
25474 H 33.089663010798176 8.685275825046546 43.58067110211809 H 0.0 **** 0.06
25475 H 34.251491261298526 7.890576509011211 42.49078610231098 H 0.0 **** 0.06
25476 C 82.08558825828118 43.20779607638076 86.6394133774115 C 0.0 **** -0.24
25477 H 81.64184265689119 43.21292801020786 85.64401544754139 H 0.0 **** 0.06
25478 H 82.80460062431484 42.39158497818818 86.71149826024805 H 0.0 **** 0.06
25479 H 81.30363332112069 43.0704680161802 87.38542340594654 H 0.0 **** 0.06
25480 H 82.59354669086758 44.1562335007082 86.81487633840004 H 0.0 **** 0.06
25481 C 84.04035670432138 114.97993289740327 62.778673187743294 C 0.0 **** -0.24
25482 H 84.25940969424464 113.96936106568033 62.43270070026969 H 0.0 **** 0.06
25483 H 84.93035818078606 115.60104047386545 62.67063899544098 H 0.0 **** 0.06
25484 H 83.74483478371135 114.9484040863968 63.8269318532561 H 0.0 **** 0.06
25485 H 83.22944240740726 115.39946648886945 62.1842978409436 H 0.0 **** 0.06
25486 C 56.22732454009383 17.086395962271123 94.37602766294789 C 0.0 **** -0.24
25487 H 56.131723842976726 18.15919385603841 94.54586812988718 H 0.0 **** 0.06
25488 H 55.462507010575564 16.558752511930464 94.94674663512214 H 0.0 **** 0.06
25489 H 57.21448661312053 16.755251845026976 94.69862830740917 H 0.0 **** 0.06
25490 H 56.102064053194994 16.873782964729603 93.31422679181324 H 0.0 **** 0.06
25491 C 63.59579799456348 84.10521469487571 70.2083647510303 C 0.0 **** -0.24
25492 H 63.49825287106226 83.98934403988909 71.28793480987476 H 0.0 **** 0.06
25493 H 63.476518328072416 85.15659519115266 69.94297432415267 H 0.0 **** 0.06
25494 H 62.82868581656268 83.51420095576196 69.70796668574165 H 0.0 **** 0.06
25495 H 64.58207741698524 83.76069045616765 69.89386732350205 H 0.0 **** 0.06
25496 C 65.05782120452619 36.68623919227235 51.455880845080344 C 0.0 **** -0.24
25497 H 64.6389191899392 36.122302374287074 52.28933025796937 H 0.0 **** 0.06
25498 H 65.77180404612972 37.41771742927892 51.83456231036257 H 0.0 **** 0.06
25499 H 64.25556212647473 37.20017920600367 50.92524664179069 H 0.0 **** 0.06
25500 H 65.56477034666409 36.0037386875498 50.77343069489348 H 0.0 **** 0.06
25501 C 65.31505971632363 107.3273482724137 41.87070882611704 C 0.0 **** -0.24
25502 H 65.02231683490216 107.4256297821415 40.825653865862336 H 0.0 **** 0.06
25503 H 66.39707130258427 107.20946143213952 41.93569511569258 H 0.0 **** 0.06
25504 H 64.8271730444142 106.45504786298265 42.304934701189694 H 0.0 **** 0.06
25505 H 65.01338469019349 108.22143828876928 42.41762093592496 H 0.0 **** 0.06
25506 C 11.546729302719626 97.58218172258478 44.000659368099015 C 0.0 **** -0.24
25507 H 11.716562121080543 97.2525424851288 45.02499391554943 H 0.0 **** 0.06
25508 H 12.347167809945432 97.2087686894634 43.36173646844386 H 0.0 **** 0.06
25509 H 11.533158937052406 98.67163216530548 43.96632073925006 H 0.0 **** 0.06
25510 H 10.590131162672492 97.19631680334999 43.647941587772934 H 0.0 **** 0.06
25511 C 106.91434654597694 100.33439155328162 40.49153587009346 C 0.0 **** -0.24
25512 H 106.96714788245757 101.0856182321483 39.70343177948507 H 0.0 **** 0.06
25513 H 106.0128357775842 100.49227159048496 41.08393506815554 H 0.0 **** 0.06
25514 H 107.79102413588743 100.42067833313934 41.13317714598429 H 0.0 **** 0.06
25515 H 106.88686749333698 99.3406483609084 40.045405980387216 H 0.0 **** 0.06
25516 C 46.28543915467074 30.702977033502634 50.49641463990718 C 0.0 **** -0.24
25517 H 45.27371764335862 30.491296006304538 50.1490713896297 H 0.0 **** 0.06
25518 H 46.257522722479024 31.511800965355576 51.22596246134906 H 0.0 **** 0.06
25519 H 46.905665486657995 30.996732483687083 49.64968943291747 H 0.0 **** 0.06
25520 H 46.70412590517063 29.80937119964969 50.95986539459221 H 0.0 **** 0.06
25521 C 37.4435252854351 74.89130046512986 29.696312615822528 C 0.0 **** -0.24
25522 H 36.847296411273646 75.05563864505221 30.594297409764742 H 0.0 **** 0.06
25523 H 37.82088011799874 75.84678994090415 29.331587017568552 H 0.0 **** 0.06
25524 H 36.8233556110103 74.42866304367186 28.928144157212046 H 0.0 **** 0.06
25525 H 38.2814037484909 74.23532497904351 29.931630220556862 H 0.0 **** 0.06
25526 C 16.433902021077316 78.71571684618273 78.61392210471715 C 0.0 **** -0.24
25527 H 17.055526951952004 77.82197666648568 78.55889032134428 H 0.0 **** 0.06
25528 H 15.514202715351331 78.55336287969627 78.05113353147851 H 0.0 **** 0.06
25529 H 16.975269864825833 79.56073523519217 78.18871941839421 H 0.0 **** 0.06
25530 H 16.190964070016264 78.92590000373922 79.65550395246106 H 0.0 **** 0.06
25531 C 102.56454686309502 3.697374130149342 66.80445579489373 C 0.0 **** -0.24
25532 H 101.82523254063076 3.125243251196565 67.36516708981117 H 0.0 **** 0.06
25533 H 103.01320927929096 3.0598393408292566 66.04104822262039 H 0.0 **** 0.06
25534 H 103.34088699328582 4.051669337400114 67.4829316518223 H 0.0 **** 0.06
25535 H 102.08079819259775 4.5497866899687835 66.32797643521718 H 0.0 **** 0.06
25536 C 9.568361597238379 104.14825790775359 78.19142592015153 C 0.0 **** -0.24
25537 H 10.189382855010876 104.87187732316949 78.72051774327831 H 0.0 **** 0.06
25538 H 10.167920090758912 103.2752427124883 77.93379705938128 H 0.0 **** 0.06
25539 H 9.177369931304952 104.60326560207864 77.28179796023989 H 0.0 **** 0.06
25540 H 8.739821236336013 103.84590494002418 78.8311016578006 H 0.0 **** 0.06
25541 C 11.936498264397546 57.197582195308144 109.75579641668162 C 0.0 **** -0.24
25542 H 12.097300322313941 56.12743998009853 109.62930597303153 H 0.0 **** 0.06
25543 H 11.943943288859728 57.442977467472076 110.81827857901607 H 0.0 **** 0.06
25544 H 10.974096987996894 57.474520615209656 109.32565290650848 H 0.0 **** 0.06
25545 H 12.731342805223012 57.74660398487819 109.25017518745307 H 0.0 **** 0.06
25546 C 24.031389475581634 104.8767748581966 110.52682613500093 C 0.0 **** -0.24
25547 H 24.37246273237406 104.01563103564732 111.10090354113999 H 0.0 **** 0.06
25548 H 22.944780433708985 104.85193612550829 110.44526404130579 H 0.0 **** 0.06
25549 H 24.47161969334644 104.8466024100858 109.5305648819305 H 0.0 **** 0.06
25550 H 24.337956974870593 105.79401207702287 111.03206760953287 H 0.0 **** 0.06
25551 C 106.70822377013215 76.42970772708571 71.81361032963879 C 0.0 **** -0.24
25552 H 105.70986284974894 76.56287168942788 71.39721583991019 H 0.0 **** 0.06
25553 H 107.26466833103925 75.71908851073186 71.2030021924856 H 0.0 **** 0.06
25554 H 106.62877459573792 76.04854480814191 72.83207547661196 H 0.0 **** 0.06
25555 H 107.22817070161491 77.38758960829932 71.82371169127165 H 0.0 **** 0.06
25556 C 107.83109185122541 69.93663625640912 108.273169411771 C 0.0 **** -0.24
25557 H 107.5571720945652 68.94859034962833 108.64157644740837 H 0.0 **** 0.06
25558 H 108.48032327780805 70.42849468300885 108.99791794075225 H 0.0 **** 0.06
25559 H 106.93093395901894 70.53267308945578 108.12762444037963 H 0.0 **** 0.06
25560 H 108.3569025023925 69.83618164519261 107.3229696112991 H 0.0 **** 0.06
25561 C 108.64404643461656 65.85093062075521 98.26797713556365 C 0.0 **** -0.24
25562 H 108.555516354681 66.83256036320313 98.7338054799894 H 0.0 **** 0.06
25563 H 108.70064748996515 65.96670076562003 97.1853658574246 H 0.0 **** 0.06
25564 H 107.77469774051993 65.24691487659982 98.52396789917577 H 0.0 **** 0.06
25565 H 109.54839757698917 65.35917787517252 98.62782413478625 H 0.0 **** 0.06
25566 C 37.95853472379628 5.5651098633425224 74.87833147738817 C 0.0 **** -0.24
25567 H 37.19930573478888 5.309371470421489 74.13930051403312 H 0.0 **** 0.06
25568 H 37.477929804730735 5.98938035426324 75.76114354338122 H 0.0 **** 0.06
25569 H 38.64833273118862 6.2939077932596525 74.45360945293199 H 0.0 **** 0.06
25570 H 38.50761764319017 4.666002914606699 75.16066334142019 H 0.0 **** 0.06
25571 C 85.9247715765735 30.22784165853068 77.49981202451758 C 0.0 **** -0.24
25572 H 86.96790448560442 30.167622940037916 77.19015904498966 H 0.0 **** 0.06
25573 H 85.28979743461224 30.324703781659366 76.61943023441398 H 0.0 **** 0.06
25574 H 85.78684563281955 31.094813309158496 78.14519415380914 H 0.0 **** 0.06
25575 H 85.65531571272788 29.321933134930305 78.04409496478775 H 0.0 **** 0.06
25576 C 76.0572935255401 81.65711135798865 105.71632247111427 C 0.0 **** -0.24
25577 H 75.94623534783898 81.62345338501446 106.80050779793456 H 0.0 **** 0.06
25578 H 76.71203243090392 80.84733121236638 105.39328273006143 H 0.0 **** 0.06
25579 H 76.49023892809498 82.61384130985026 105.42492135888669 H 0.0 **** 0.06
25580 H 75.07910070424884 81.54312775483176 105.2480157798273 H 0.0 **** 0.06
25581 C 82.35413875372447 75.68634877506042 44.136048542725 C 0.0 **** -0.24
25582 H 82.99683746715137 76.2538184297286 44.80938065188188 H 0.0 **** 0.06
25583 H 82.02618712300293 76.32951114304086 43.31981609231983 H 0.0 **** 0.06
25584 H 81.48530936457857 75.32326721470571 44.685258739136216 H 0.0 **** 0.06
25585 H 82.90839258597298 74.83949364588068 43.73208121438768 H 0.0 **** 0.06
25586 C 10.695963418561064 61.03697465623681 107.7411664248088 C 0.0 **** -0.24
25587 H 9.984509689551032 60.220669937748525 107.60892475019277 H 0.0 **** 0.06
25588 H 10.950660869937792 61.129279760797175 108.79667317276557 H 0.0 **** 0.06
25589 H 10.247988717222654 61.96746726418834 107.39188323018939 H 0.0 **** 0.06
25590 H 11.597730007041434 60.829109867077435 107.16535934385577 H 0.0 **** 0.06
25591 C 84.75719356808649 39.177678307155986 57.1250095022625 C 0.0 **** -0.24
25592 H 84.89370631201119 39.46798165819544 58.16686016533788 H 0.0 **** 0.06
25593 H 84.72518859642827 38.09024457787564 57.05226225746512 H 0.0 **** 0.06
25594 H 85.58825448731646 39.558395834107074 56.53031249212958 H 0.0 **** 0.06
25595 H 83.82236884641668 39.59585927219484 56.75175225336618 H 0.0 **** 0.06
25596 C 93.45517295401085 98.94013796825072 77.55884795555932 C 0.0 **** -0.24
25597 H 94.19775986277784 98.17287308242294 77.77775850622237 H 0.0 **** 0.06
25598 H 92.8639609953738 99.13809979672124 78.45350998537123 H 0.0 **** 0.06
25599 H 92.80094847020426 98.59334993692727 76.75976731740548 H 0.0 **** 0.06
25600 H 93.95886908428271 99.85425486540674 77.24553337605403 H 0.0 **** 0.06
25601 C 16.412052897417908 19.034055194300777 78.06900480966105 C 0.0 **** -0.24
25602 H 16.827153407346515 18.27298404002707 78.72957411473749 H 0.0 **** 0.06
25603 H 16.476689671677775 18.692005832092747 77.03574738054665 H 0.0 **** 0.06
25604 H 16.976762564089825 19.95992005354418 78.18192448357738 H 0.0 **** 0.06
25605 H 15.368586565610855 19.211115456822228 78.32875701052312 H 0.0 **** 0.06
25606 C 8.99643464951448 34.63852974365835 59.99673827254203 C 0.0 **** -0.24
25607 H 9.422146497004405 33.73971019323682 59.55000521409025 H 0.0 **** 0.06
25608 H 9.792290345601803 35.35794118264576 60.19060026060603 H 0.0 **** 0.06
25609 H 8.504327867421253 34.38009781368578 60.93462389146582 H 0.0 **** 0.06
25610 H 8.269788675652528 35.0754157311342 59.31213270260798 H 0.0 **** 0.06
25611 C 14.934356160150656 12.853513081599544 12.809642117546101 C 0.0 **** -0.24
25612 H 14.937074244308292 11.776310816891623 12.976223773614365 H 0.0 **** 0.06
25613 H 15.873695590095707 13.278270129228645 13.164510366942313 H 0.0 **** 0.06
25614 H 14.103525873154837 13.302805022390203 13.353760070012441 H 0.0 **** 0.06
25615 H 14.823155847448675 13.055666692088437 11.744075134992055 H 0.0 **** 0.06
25616 C 52.51037071365837 86.25072043857733 103.26578321012929 C 0.0 **** -0.24
25617 H 52.942322451298836 85.66218877893743 104.07473913843916 H 0.0 **** 0.06
25618 H 51.454547047379755 86.0022265628385 103.15908868419501 H 0.0 **** 0.06
25619 H 53.032969855302795 86.02888161612611 102.335619678601 H 0.0 **** 0.06
25620 H 52.61314506430983 87.31229621973125 103.4948660660175 H 0.0 **** 0.06
25621 C 84.46192616352431 16.154175587280633 66.1269413007607 C 0.0 **** -0.24
25622 H 83.6807248172417 16.208487203576027 65.36817367663423 H 0.0 **** 0.06
25623 H 84.96157657306554 15.18632516897813 66.065641168891 H 0.0 **** 0.06
25624 H 84.0176654691274 16.273484722848423 67.11451167860565 H 0.0 **** 0.06
25625 H 85.18811832891475 16.94978843022571 65.95680381113624 H 0.0 **** 0.06
25626 C 24.291551765019996 53.96017374576769 91.86207133950775 C 0.0 **** -0.24
25627 H 23.38350976718618 53.675406759462874 92.39294704187546 H 0.0 **** 0.06
25628 H 24.714582768418687 53.083262108640724 91.36991646435534 H 0.0 **** 0.06
25629 H 25.014901781937738 54.364368219944424 92.57008060629963 H 0.0 **** 0.06
25630 H 24.053121685387346 54.7167265220653 91.11428088389509 H 0.0 **** 0.06
25631 C 35.95440967622457 108.68083392983561 94.02401761628545 C 0.0 **** -0.24
25632 H 35.93419001893943 108.1508117309831 94.97555169942679 H 0.0 **** 0.06
25633 H 35.04600612512684 109.27388482053024 93.91960417455876 H 0.0 **** 0.06
25634 H 36.014547515923425 107.96038630507861 93.20763824788817 H 0.0 **** 0.06
25635 H 36.82289504490825 109.3382528627506 93.9932763432683 H 0.0 **** 0.06
25636 C 74.27105833739182 89.57823941226195 108.08770649272543 C 0.0 **** -0.24
25637 H 74.29092163941453 88.92521512369956 107.21530218749149 H 0.0 **** 0.06
25638 H 74.55203875294035 90.58847088127538 107.79217499123274 H 0.0 **** 0.06
25639 H 74.9748134032265 89.20868564053853 108.83415168395175 H 0.0 **** 0.06
25640 H 73.26652671011183 89.58876708297996 108.51083642492597 H 0.0 **** 0.06
25641 C 107.08107091207172 15.577315705030188 60.31965548130543 C 0.0 **** -0.24
25642 H 107.26529064179705 15.0718800474691 59.37121123440312 H 0.0 **** 0.06
25643 H 107.96561878629846 16.14653470364344 60.605556422269444 H 0.0 **** 0.06
25644 H 106.86192759243934 14.835671871643687 61.08895339822598 H 0.0 **** 0.06
25645 H 106.23217493272432 16.252443228512227 60.21287073703809 H 0.0 **** 0.06
25646 C 78.03980480434993 61.267523853450584 4.612103759066141 C 0.0 **** -0.24
25647 H 77.9880071966817 61.425214027361775 5.689878981690088 H 0.0 **** 0.06
25648 H 77.08315189537281 61.53086282504076 4.160962595424577 H 0.0 **** 0.06
25649 H 78.2617592124062 60.21994209240515 4.408724197475747 H 0.0 **** 0.06
25650 H 78.82629998483118 61.893585538408786 4.191249121559784 H 0.0 **** 0.06
25651 C 27.223322878005177 33.257597556118355 51.63639420665416 C 0.0 **** -0.24
25652 H 27.0112519000713 32.58952525485024 50.80199752570513 H 0.0 **** 0.06
25653 H 26.94578593726027 32.76987893232863 52.571202947652665 H 0.0 **** 0.06
25654 H 26.647089235043723 34.1762633063759 51.52172668214591 H 0.0 **** 0.06
25655 H 28.28666241582465 33.49583856737863 51.65135340450925 H 0.0 **** 0.06
25656 C 38.466663814844225 9.897254942097504 66.55108500278601 C 0.0 **** -0.24
25657 H 38.09484465477661 8.899351981215261 66.78333861687412 H 0.0 **** 0.06
25658 H 38.13336686739012 10.185210166341733 65.55352771322862 H 0.0 **** 0.06
25659 H 39.556335786886535 9.894722983298863 66.58316544454033 H 0.0 **** 0.06
25660 H 38.081644075001435 10.60771741219554 67.28213657046354 H 0.0 **** 0.06
25661 C 15.153275080126349 57.16644893761662 97.21598947882187 C 0.0 **** -0.24
25662 H 14.639297854685566 56.254564899006084 96.91253363648657 H 0.0 **** 0.06
25663 H 16.09089318813028 57.25431541962456 96.66751131627367 H 0.0 **** 0.06
25664 H 15.35970789791918 57.12747635757131 98.28612930791714 H 0.0 **** 0.06
25665 H 14.522119709891456 58.02876651929097 96.99895746493031 H 0.0 **** 0.06
25666 C 87.04318842820753 114.5876934477694 111.57237514085742 C 0.0 **** -0.24
25667 H 87.32293339670824 114.66806228505195 112.62290365996614 H 0.0 **** 0.06
25668 H 85.96613840913291 114.7284576652054 111.47175033183007 H 0.0 **** 0.06
25669 H 87.31770433001692 113.60206734049471 111.19763963192355 H 0.0 **** 0.06
25670 H 87.56472573685153 115.35386655985761 110.99847604863106 H 0.0 **** 0.06
25671 C 105.60431847191613 38.689178041619414 47.72115172503025 C 0.0 **** -0.24
25672 H 105.44328772033589 38.40715419636467 46.68060945907932 H 0.0 **** 0.06
25673 H 105.21727953544226 39.69522021636169 47.888342212411686 H 0.0 **** 0.06
25674 H 106.67106713650121 38.66787229992897 47.941476123468405 H 0.0 **** 0.06
25675 H 105.08419721057021 37.98676758829447 48.37222235519154 H 0.0 **** 0.06
25676 C 42.57128394016573 109.12649124565053 104.70188291108626 C 0.0 **** -0.24
25677 H 42.501384008940136 108.19819537662012 104.13451851573429 H 0.0 **** 0.06
25678 H 43.47397313106839 109.66309936929949 104.41095085272866 H 0.0 **** 0.06
25679 H 42.61068186211915 108.89845613678354 105.76719055011183 H 0.0 **** 0.06
25680 H 41.69804668541576 109.74424504728013 104.49501477310005 H 0.0 **** 0.06
25681 C 14.152730419157479 114.94582688387347 25.224573180746575 C 0.0 **** -0.24
25682 H 14.738207498216951 114.94761528531802 24.304684602912516 H 0.0 **** 0.06
25683 H 13.091251701041415 114.97829780420771 24.978937014986172 H 0.0 **** 0.06
25684 H 14.41574507554094 115.81751753603356 25.823918039036442 H 0.0 **** 0.06
25685 H 14.368067455013318 114.03795856628118 25.78880423386977 H 0.0 **** 0.06
25686 C 0.12112410857371181 65.73205472355374 32.07998503130028 C 0.0 **** -0.24
25687 H 1.1539757238490687 65.71589578342065 31.732871287491832 H 0.0 **** 0.06
25688 H -0.5414460169946045 65.4455644850471 31.261686263659726 H 0.0 **** 0.06
25689 H -0.13340731238207848 66.73691553684358 32.41786236013655 H 0.0 **** 0.06
25690 H 0.003653560485842533 65.03032937492873 32.90532842659462 H 0.0 **** 0.06
25691 C 108.01650223540972 10.387485664005979 37.58469426663906 C 0.0 **** -0.24
25692 H 107.92376789366783 11.464842834983017 37.7149337283922 H 0.0 **** 0.06
25693 H 108.0404664508343 9.904551346569875 38.56265890590065 H 0.0 **** 0.06
25694 H 108.93767939511784 10.164690227732535 37.046167206388816 H 0.0 **** 0.06
25695 H 107.16415641830208 10.014750358325301 37.015894123562504 H 0.0 **** 0.06
25696 C 2.9803976264760195 59.047061207321136 107.84945671851891 C 0.0 **** -0.24
25697 H 2.2268073391551297 58.32834928305253 107.52702467878986 H 0.0 **** 0.06
25698 H 2.644758154818419 59.540021463271756 108.76297245624215 H 0.0 **** 0.06
25699 H 3.128766823545675 59.79282108558725 107.06822668736267 H 0.0 **** 0.06
25700 H 3.919469784024045 58.52838664389107 108.03975563319314 H 0.0 **** 0.06
25701 C 90.49148778046307 34.70375041795438 103.88153261602616 C 0.0 **** -0.24
25702 H 91.41391483284355 35.26560410394967 103.72961681852536 H 0.0 **** 0.06
25703 H 89.64705248117701 35.39325761359203 103.9053330554878 H 0.0 **** 0.06
25704 H 90.54642903775533 34.16459839298898 104.82697911171903 H 0.0 **** 0.06
25705 H 90.35942854397985 33.994220905957036 103.06523013918275 H 0.0 **** 0.06
25706 C 6.166665240775082 70.7272394744403 65.34233010666271 C 0.0 **** -0.24
25707 H 6.79710036737343 70.86050552387002 64.46314794740232 H 0.0 **** 0.06
25708 H 5.51701213340673 69.86368487276832 65.19721675195115 H 0.0 **** 0.06
25709 H 5.558075317460933 71.61904372732243 65.49018139298342 H 0.0 **** 0.06
25710 H 6.794641364787964 70.566573942059 66.21827536252145 H 0.0 **** 0.06
25711 C 78.99978722484761 0.7160032939987104 46.53924070106464 C 0.0 **** -0.24
25712 H 79.68799039709896 0.3050266946156057 45.79962846144991 H 0.0 **** 0.06
25713 H 79.54559150912326 0.9453521682984274 47.455003983483095 H 0.0 **** 0.06
25714 H 78.22000074731733 -0.01531558607922534 46.754269438087874 H 0.0 **** 0.06
25715 H 78.5469685688397 1.6256122174780785 46.14711531704285 H 0.0 **** 0.06
25716 C 22.094829169824834 39.45339139976794 34.502277497193234 C 0.0 **** -0.24
25717 H 22.747299760095274 39.86517109197081 33.73232154480229 H 0.0 **** 0.06
25718 H 22.685364556114422 39.2099637718481 35.386105851975316 H 0.0 **** 0.06
25719 H 21.614824682459215 38.55071075972586 34.125422272698344 H 0.0 **** 0.06
25720 H 21.333551667179734 40.187660760998035 34.765103684040724 H 0.0 **** 0.06
25721 C 47.81355035372475 66.53720141774753 56.68551470276597 C 0.0 **** -0.24
25722 H 47.89709911784925 66.1975294557537 55.65301475890907 H 0.0 **** 0.06
25723 H 48.619503168005195 66.10318219241098 57.27786929920539 H 0.0 **** 0.06
25724 H 46.85300611016834 66.22235739177522 57.093946554177265 H 0.0 **** 0.06
25725 H 47.882498257883356 67.62463493150445 56.71659687027747 H 0.0 **** 0.06
25726 C 92.69482385237727 2.4163539143439863 86.10070334563639 C 0.0 **** -0.24
25727 H 92.89963729099134 1.4397451985109768 85.66196944994738 H 0.0 **** 0.06
25728 H 91.82243244479191 2.856381624213583 85.61601118890607 H 0.0 **** 0.06
25729 H 93.55707211938646 3.066749305529129 85.95765702559527 H 0.0 **** 0.06
25730 H 92.49908214635134 2.3008936606804298 87.1667969972952 H 0.0 **** 0.06
25731 C 28.829789786491858 84.54320426028767 37.033516638719504 C 0.0 **** -0.24
25732 H 29.205351691467513 83.6737414074426 37.57356773751735 H 0.0 **** 0.06
25733 H 28.666938122604677 84.27845900934375 35.98850856550763 H 0.0 **** 0.06
25734 H 29.557680030872802 85.3515479373946 37.09516715200681 H 0.0 **** 0.06
25735 H 27.888838626016877 84.86770085977977 37.476901773495 H 0.0 **** 0.06
25736 C 52.11690952954177 84.8315981445499 0.9050796495191236 C 0.0 **** -0.24
25737 H 51.86653713154408 83.85014191174605 1.3076922126126505 H 0.0 **** 0.06
25738 H 53.19767124724933 84.97616393038811 0.9468354189387611 H 0.0 **** 0.06
25739 H 51.62386596785126 85.60354511551589 1.4956551787412877 H 0.0 **** 0.06
25740 H 51.78127253553009 84.89639212472605 -0.13010493436026138 H 0.0 **** 0.06
25741 C 100.76161877463574 11.63028917380143 76.56515853466873 C 0.0 **** -0.24
25742 H 101.74469708636252 11.160559503568763 76.55770403454902 H 0.0 **** 0.06
25743 H 100.43578112261412 11.808040905027735 75.53978262266463 H 0.0 **** 0.06
25744 H 100.8170028492085 12.580727567309669 77.09843160808984 H 0.0 **** 0.06
25745 H 100.04931620208879 10.97473180597839 77.06540057134376 H 0.0 **** 0.06
25746 C 13.341757128580014 3.5787001641887173 65.7474765123248 C 0.0 **** -0.24
25747 H 13.940671592221605 4.1840746876559365 66.42896883902017 H 0.0 **** 0.06
25748 H 13.79774510197521 3.5888117918260036 64.75697142121126 H 0.0 **** 0.06
25749 H 12.333433717995547 3.9890312367437275 65.68740240415752 H 0.0 **** 0.06
25750 H 13.296344042202094 2.5547897707108405 66.11649362308174 H 0.0 **** 0.06
25751 C 113.56718475869874 76.09988081145 34.71285487713098 C 0.0 **** -0.24
25752 H 112.90218017548293 76.54957365847925 33.975029800484435 H 0.0 **** 0.06
25753 H 114.59164316446129 76.41913599425534 34.52011234191616 H 0.0 **** 0.06
25754 H 113.50511544429258 75.01421890993765 34.64362233608503 H 0.0 **** 0.06
25755 H 113.26841969331161 76.41854030347595 35.71209918444555 H 0.0 **** 0.06
25756 C 32.53944225059587 69.12903861558868 15.988199594938408 C 0.0 **** -0.24
25757 H 32.909938444831766 68.59139193438578 15.11555123745245 H 0.0 **** 0.06
25758 H 32.33557723040485 68.42084451636131 16.791581041897672 H 0.0 **** 0.06
25759 H 31.621952457300438 69.65702141404945 15.726720638614381 H 0.0 **** 0.06
25760 H 33.28981309568809 69.84747181670659 16.317749086836784 H 0.0 **** 0.06
25761 C 115.07082735013161 11.888548617455712 2.3099271314904968 C 0.0 **** -0.24
25762 H 115.90216451045292 12.456482141953273 1.8928221497129698 H 0.0 **** 0.06
25763 H 114.13748283130823 12.229622147313648 1.8606171259781945 H 0.0 **** 0.06
25764 H 115.03205242394719 12.040469060539039 3.3884785786717657 H 0.0 **** 0.06
25765 H 115.21051029260572 10.828642653643954 2.0969257517566575 H 0.0 **** 0.06
25766 C 14.900808041498408 51.84629150338105 58.34270444889512 C 0.0 **** -0.24
25767 H 15.65782863149218 51.58492350787105 59.08242343499012 H 0.0 **** 0.06
25768 H 15.372126288085838 52.364301029729404 57.50717897221148 H 0.0 **** 0.06
25769 H 14.155092128601325 52.49623018287082 58.799380466790495 H 0.0 **** 0.06
25770 H 14.417604758589448 50.93773208393111 57.980971093634594 H 0.0 **** 0.06
25771 C 3.8310272407214114 88.69854108579585 58.844696181655976 C 0.0 **** -0.24
25772 H 3.9661382457074144 88.32925086616862 59.86140573556102 H 0.0 **** 0.06
25773 H 4.5373446925877925 89.50705332872604 58.65484046311144 H 0.0 **** 0.06
25774 H 2.8132532807624155 89.06845529172716 58.72499597387983 H 0.0 **** 0.06
25775 H 4.007874841396694 87.88722303835468 58.13853648994258 H 0.0 **** 0.06
25776 C 51.98462110938266 37.491585937905825 18.824996310265885 C 0.0 **** -0.24
25777 H 51.4026635740654 37.48135829513552 19.74651536561881 H 0.0 **** 0.06
25778 H 53.03334041126777 37.301810482266944 19.0558506243005 H 0.0 **** 0.06
25779 H 51.88864686779675 38.46646553322529 18.34697510374388 H 0.0 **** 0.06
25780 H 51.614462772276454 36.71934793617538 18.151925934263268 H 0.0 **** 0.06
25781 C 14.86716135226942 103.8694522819527 60.715576670718974 C 0.0 **** -0.24
25782 H 14.500345191571512 103.25574400222126 59.89234301528904 H 0.0 **** 0.06
25783 H 15.715582443240237 104.46386989356995 60.374608953997836 H 0.0 **** 0.06
25784 H 15.180634667893116 103.22561651653342 61.53691429978568 H 0.0 **** 0.06
25785 H 14.072218019451753 104.532398535232 61.05600121829846 H 0.0 **** 0.06
25786 C 60.469060554956855 46.04379089789873 71.64879609552406 C 0.0 **** -0.24
25787 H 61.54839426377299 46.19947286431787 71.67161092327711 H 0.0 **** 0.06
25788 H 59.96605959389885 46.938616824009955 72.01746700131366 H 0.0 **** 0.06
25789 H 60.212222322868286 45.1949067861043 72.28275466081664 H 0.0 **** 0.06
25790 H 60.15239920425802 45.84259984505215 70.62575735668378 H 0.0 **** 0.06
25791 C 90.96460111016098 38.75994198764522 12.653732705382765 C 0.0 **** -0.24
25792 H 90.09580491313028 38.385564273748 13.195368249533203 H 0.0 **** 0.06
25793 H 90.97382953992332 39.849508159343 12.691428586297121 H 0.0 **** 0.06
25794 H 90.9142329411263 38.43220255251512 11.614920633854524 H 0.0 **** 0.06
25795 H 91.8735315521384 38.37150386105648 13.11331712238217 H 0.0 **** 0.06
25796 C 97.2949894403364 33.16101758581679 86.05977542963006 C 0.0 **** -0.24
25797 H 97.45265561884631 32.11063942572153 86.30526406275425 H 0.0 **** 0.06
25798 H 97.83648104869746 33.78534872786611 86.77030270074795 H 0.0 **** 0.06
25799 H 96.23050567090905 33.39021868497903 86.11286720135115 H 0.0 **** 0.06
25800 H 97.65956588634992 33.35787237938143 85.05132970009447 H 0.0 **** 0.06
25801 C 60.17315085753506 36.24409728435417 108.2143397545618 C 0.0 **** -0.24
25802 H 60.74374047976772 36.53733319920845 109.09561482015117 H 0.0 **** 0.06
25803 H 59.111298443352666 36.41292920461939 108.39686607674899 H 0.0 **** 0.06
25804 H 60.34231956745771 35.18795485290046 108.0059875768011 H 0.0 **** 0.06
25805 H 60.494322720164064 36.8391236338617 107.35938429651142 H 0.0 **** 0.06
25806 C 103.70679629489481 88.24194419305663 80.2907471896517 C 0.0 **** -0.24
25807 H 103.3970340297616 89.02600351055794 79.59923440977366 H 0.0 **** 0.06
25808 H 104.73352125833007 88.42402378868182 80.60873845271185 H 0.0 **** 0.06
25809 H 103.64548071058759 87.27465592198358 79.79343513912599 H 0.0 **** 0.06
25810 H 103.05013592988257 88.24648572814021 81.16089723972797 H 0.0 **** 0.06
25811 C 83.14852497428683 33.84448093119675 26.215250511658127 C 0.0 **** -0.24
25812 H 83.78481193174576 34.63964976776753 25.827431027473807 H 0.0 **** 0.06
25813 H 83.57774327861071 33.45460136224468 27.139083404556715 H 0.0 **** 0.06
25814 H 83.07951898423065 33.04309665927309 25.479400665466557 H 0.0 **** 0.06
25815 H 82.15314595146495 34.23984781202148 26.415550621771445 H 0.0 **** 0.06
25816 C 62.478119899611755 79.0763163913062 57.61339929165791 C 0.0 **** -0.24
25817 H 63.20522670283499 78.27436067424509 57.487287210371676 H 0.0 **** 0.06
25818 H 62.69471420790201 79.62085212059208 58.53291565749538 H 0.0 **** 0.06
25819 H 61.47609993325281 78.65129791028377 57.66982462845897 H 0.0 **** 0.06
25820 H 62.536988717145206 79.75721730511233 56.764147282871704 H 0.0 **** 0.06
25821 C 72.46496730095042 13.008347664012206 39.013100471018575 C 0.0 **** -0.24
25822 H 72.82882186701451 12.483782327627438 38.130055980279444 H 0.0 **** 0.06
25823 H 72.57528682106668 14.083683778445248 38.867050829148106 H 0.0 **** 0.06
25824 H 73.04420340589431 12.698813760247845 39.88293197287108 H 0.0 **** 0.06
25825 H 71.41367880529809 12.768250330124204 39.17087975727471 H 0.0 **** 0.06
25826 C 17.668458564546942 104.73839056010871 1.4604392343928936 C 0.0 **** -0.24
25827 H 17.50966347777903 105.27772923347962 0.5264282647914769 H 0.0 **** 0.06
25828 H 17.260881160613827 105.31906136452668 2.2885815461641386 H 0.0 **** 0.06
25829 H 18.736531137783672 104.58553177072781 1.6148177168046516 H 0.0 **** 0.06
25830 H 17.16552154313259 103.7718600003261 1.411636943706327 H 0.0 **** 0.06
25831 C 84.18349757573498 48.785016049865234 83.07487857097595 C 0.0 **** -0.24
25832 H 84.7981502191411 49.56081858714435 83.53148464661213 H 0.0 **** 0.06
25833 H 83.49276513802232 49.24062252798386 82.36481657739292 H 0.0 **** 0.06
25834 H 83.61982529428191 48.26542847984455 83.84873048299934 H 0.0 **** 0.06
25835 H 84.82522029061752 48.07405608580816 82.55387043664297 H 0.0 **** 0.06
25836 C 111.13786783059766 92.75183524426146 53.190117773096745 C 0.0 **** -0.24
25837 H 111.13993938820418 93.83275857995079 53.04314119970864 H 0.0 **** 0.06
25838 H 110.43374175536096 92.49547888294445 53.982592707338696 H 0.0 **** 0.06
25839 H 112.13815453332086 92.42164255336245 53.4707454046299 H 0.0 **** 0.06
25840 H 110.83913720700635 92.26073758437828 52.26411796468571 H 0.0 **** 0.06
25841 C 66.84794237998119 0.24760354304558518 60.34102677005272 C 0.0 **** -0.24
25842 H 67.34683829954014 -0.654817471078772 60.69437748775189 H 0.0 **** 0.06
25843 H 65.81590597638021 0.2535033942528315 60.69144451720824 H 0.0 **** 0.06
25844 H 66.86144922160025 0.2658045303036545 59.25111812197039 H 0.0 **** 0.06
25845 H 67.36783990898527 1.124972552414576 60.72516048103478 H 0.0 **** 0.06
25846 C 87.9014180998168 16.562085239132447 21.250493158331807 C 0.0 **** -0.24
25847 H 87.00893502147244 17.03050806938996 21.66500436678382 H 0.0 **** 0.06
25848 H 87.669396413441 15.538763156120648 20.953795568914416 H 0.0 **** 0.06
25849 H 88.68972448628472 16.552838741946328 22.002115406157117 H 0.0 **** 0.06
25850 H 88.23609437384766 17.125075697574175 20.379524698419175 H 0.0 **** 0.06
25851 C 109.93472344526984 16.611136982159906 66.84360187310727 C 0.0 **** -0.24
25852 H 109.40199206455972 17.561821770162993 66.84471351061649 H 0.0 **** 0.06
25853 H 109.24268415016357 15.80736298580544 66.59366489455891 H 0.0 **** 0.06
25854 H 110.35888925647893 16.43301266417336 67.83232666277513 H 0.0 **** 0.06
25855 H 110.73559207589496 16.64428697745325 66.10517919685208 H 0.0 **** 0.06
25856 C 105.41765042439637 9.351011928488646 48.218144825644565 C 0.0 **** -0.24
25857 H 106.39370568487632 9.2267306304513 48.68743243069009 H 0.0 **** 0.06
25858 H 105.47085892018802 10.144891177641682 47.47305882051771 H 0.0 **** 0.06
25859 H 104.68085727941711 9.614616113063164 48.97789302924724 H 0.0 **** 0.06
25860 H 105.12547531387047 8.418300675381687 47.73657662972275 H 0.0 **** 0.06
25861 C 114.49815307989735 109.92835920503484 87.49784766460147 C 0.0 **** -0.24
25862 H 114.9900555186608 109.42282762504263 86.66590087821612 H 0.0 **** 0.06
25863 H 113.97171942660034 110.80851251338666 87.12815003411663 H 0.0 **** 0.06
25864 H 115.24631635002197 110.23228683845318 88.2306118310683 H 0.0 **** 0.06
25865 H 113.78711009467 109.24794749126357 87.96537549419361 H 0.0 **** 0.06
25866 C 114.01449518945293 76.67178606661935 28.608037778519133 C 0.0 **** -0.24
25867 H 113.82872522609694 77.6203032654569 28.105411549683367 H 0.0 **** 0.06
25868 H 114.84563012714 76.78766973500132 29.304878033844574 H 0.0 **** 0.06
25869 H 114.26400563621964 75.91183852248992 27.86799603412595 H 0.0 **** 0.06
25870 H 113.12096401648495 76.36937990583368 29.153915141542882 H 0.0 **** 0.06
25871 C 102.92970248911732 39.53954362573745 31.21794799330513 C 0.0 **** -0.24
25872 H 102.16016787767413 38.821787020347266 31.506155597653787 H 0.0 **** 0.06
25873 H 102.67847800935044 39.9696098580915 30.248256358794976 H 0.0 **** 0.06
25874 H 103.89228793733356 39.032550793788815 31.15307071385753 H 0.0 **** 0.06
25875 H 102.9852308627876 40.331836181655724 31.96484603976981 H 0.0 **** 0.06
25876 C 75.50113444626328 113.56783409921746 111.15498684237907 C 0.0 **** -0.24
25877 H 75.35539545519629 114.41481114813763 110.48405717661284 H 0.0 **** 0.06
25878 H 74.6331270529548 112.91016274086229 111.10320716686248 H 0.0 **** 0.06
25879 H 75.62399715690896 113.92982300232495 112.1756794177942 H 0.0 **** 0.06
25880 H 76.39374961223496 113.01760477584475 110.8545812741601 H 0.0 **** 0.06
25881 C 63.35617392098561 4.045394503716352 71.40351554342274 C 0.0 **** -0.24
25882 H 64.12430329790405 3.294134225710593 71.22167557595304 H 0.0 **** 0.06
25883 H 63.81394268543886 5.035057085891253 71.42536418505773 H 0.0 **** 0.06
25884 H 62.87373784011862 3.847432523471639 72.360473229836 H 0.0 **** 0.06
25885 H 62.61311780500938 4.005660013857721 70.60712975512459 H 0.0 **** 0.06
25886 C 46.31411874230821 25.689083019996275 100.9099906384569 C 0.0 **** -0.24
25887 H 45.804000178322326 25.40341173058202 101.82950109255815 H 0.0 **** 0.06
25888 H 45.72351357516652 26.43965745724733 100.38509438060315 H 0.0 **** 0.06
25889 H 46.43611906234196 24.81134677322558 100.27438728333564 H 0.0 **** 0.06
25890 H 47.29372651325616 26.100554703075332 101.15158363928424 H 0.0 **** 0.06
25891 C 61.237446305364955 59.53337420208993 63.335214827216134 C 0.0 **** -0.24
25892 H 62.32680636568729 59.51171986385168 63.35177579199876 H 0.0 **** 0.06
25893 H 60.89832071239071 60.0355096019253 62.42933823131921 H 0.0 **** 0.06
25894 H 60.87212478332226 60.07263555715775 64.20868771189669 H 0.0 **** 0.06
25895 H 60.853725234070396 58.51317828399698 63.35044611104158 H 0.0 **** 0.06
25896 C 104.3413869863482 50.29635881131058 15.456077882683843 C 0.0 **** -0.24
25897 H 104.38791016007661 49.22580865281736 15.25552732282867 H 0.0 **** 0.06
25898 H 103.30251633561659 50.59352524288093 15.599564605913827 H 0.0 **** 0.06
25899 H 104.76203131671168 50.84278754308852 14.611332595370726 H 0.0 **** 0.06
25900 H 104.9126475444494 50.52274875085418 16.355769198353244 H 0.0 **** 0.06
25901 C 56.20655821706407 100.91089353511143 6.359619963362007 C 0.0 **** -0.24
25902 H 55.4395622138793 101.3250233529289 7.014138247034168 H 0.0 **** 0.06
25903 H 57.08930991695934 101.55057523126032 6.38617890826437 H 0.0 **** 0.06
25904 H 55.825034296792296 100.85917949200746 5.340371881087506 H 0.0 **** 0.06
25905 H 56.47196989834174 99.91076057742873 6.700243190236662 H 0.0 **** 0.06
25906 C 37.413880428033295 107.5467714762885 62.11440012131055 C 0.0 **** -0.24
25907 H 37.93585284876646 107.22387860708169 63.014896380631626 H 0.0 **** 0.06
25908 H 36.34573994292609 107.62240414813611 62.32063595302378 H 0.0 **** 0.06
25909 H 37.57938387047437 106.81993124399237 61.31840985200694 H 0.0 **** 0.06
25910 H 37.793526052061054 108.51918072426955 61.80260861766442 H 0.0 **** 0.06
25911 C 99.75607280841803 89.10808545325733 105.28213952867782 C 0.0 **** -0.24
25912 H 98.9042328776689 89.69379918797335 105.62685198025409 H 0.0 **** 0.06
25913 H 100.6740281622757 89.519646796541 105.70399956533372 H 0.0 **** 0.06
25914 H 99.80780464780622 89.1457234341384 104.19414746196519 H 0.0 **** 0.06
25915 H 99.63980367663174 88.07381024236213 105.60581811320205 H 0.0 **** 0.06
25916 C 110.61884114634162 39.08052908051528 35.10935903322951 C 0.0 **** -0.24
25917 H 109.96426593324824 39.14235221848421 34.24064637719431 H 0.0 **** 0.06
25918 H 110.36544256044368 38.19443032829203 35.69318677618846 H 0.0 **** 0.06
25919 H 110.49105457164472 39.97049241313199 35.72489486768311 H 0.0 **** 0.06
25920 H 111.65532277629049 39.01273293165601 34.77889410797119 H 0.0 **** 0.06
25921 C 34.463806386831074 0.2960728328803839 44.07362360308235 C 0.0 **** -0.24
25922 H 34.89168516836438 1.2559543142508574 44.36492226886371 H 0.0 **** 0.06
25923 H 33.59807845595922 0.0792615320515182 44.69961767521329 H 0.0 **** 0.06
25924 H 35.21093510786629 -0.4874854129988364 44.19997511746051 H 0.0 **** 0.06
25925 H 34.15520256486764 0.3393843531730312 43.02837557714898 H 0.0 **** 0.06
25926 C 59.276525025462504 82.88585560741319 2.398328069997362 C 0.0 **** -0.24
25927 H 58.473128776770295 82.53322899937373 1.7528744308424677 H 0.0 **** 0.06
25928 H 58.88823554740313 83.6410400943326 3.0820482256644226 H 0.0 **** 0.06
25929 H 60.068561418182455 83.32114406592143 1.7884642324124655 H 0.0 **** 0.06
25930 H 59.676225489065544 82.04922492165673 2.9706462867636247 H 0.0 **** 0.06
25931 C 44.7382680717036 77.73789608340786 100.80818179837095 C 0.0 **** -0.24
25932 H 44.48467476049544 78.74188031509237 101.14697316582158 H 0.0 **** 0.06
25933 H 43.94369083921728 77.04749608401079 101.09264526407222 H 0.0 **** 0.06
25934 H 45.67542624786344 77.42475794828863 101.26801719977755 H 0.0 **** 0.06
25935 H 44.84801318634388 77.73799834362757 99.72333268388829 H 0.0 **** 0.06
25936 C 22.378595370086515 100.24612961238338 83.51634344984774 C 0.0 **** -0.24
25937 H 22.860523290421668 100.91971844941412 84.22433643200043 H 0.0 **** 0.06
25938 H 21.572135972884553 100.7714099619979 83.00489028827553 H 0.0 **** 0.06
25939 H 21.971554886131003 99.38746831616854 84.05112604722979 H 0.0 **** 0.06
25940 H 23.110495977950507 99.9038723026407 82.78418907280405 H 0.0 **** 0.06
25941 C 10.420838614586728 14.40952581697178 11.466172125005855 C 0.0 **** -0.24
25942 H 9.845212168760156 15.330474011468539 11.370150217719157 H 0.0 **** 0.06
25943 H 9.739104591914156 13.563715942195756 11.554313613944629 H 0.0 **** 0.06
25944 H 11.049536693760047 14.465017747913123 12.354141072993684 H 0.0 **** 0.06
25945 H 11.048147710642695 14.280341024291545 10.584063767788223 H 0.0 **** 0.06
25946 C 0.31666960629918606 115.06607894880642 40.808468804419675 C 0.0 **** -0.24
25947 H 0.03707504518077087 114.60492716243783 41.75573195036722 H 0.0 **** 0.06
25948 H 0.08668295246525304 116.13032597584893 40.84172349442372 H 0.0 **** 0.06
25949 H -0.2421188459547352 114.59815451795436 39.998199882525 H 0.0 **** 0.06
25950 H 1.3852853738699196 114.92911154407008 40.639528311408895 H 0.0 **** 0.06
25951 C 88.79284629495385 81.51131914225603 110.63481989636398 C 0.0 **** -0.24
25952 H 89.40826142588395 81.59729695939195 111.52966654027273 H 0.0 **** 0.06
25953 H 88.12112955436379 82.3675879387188 110.57140900748374 H 0.0 **** 0.06
25954 H 88.20842535030732 80.59240923058402 110.68250945874212 H 0.0 **** 0.06
25955 H 89.435304960738 81.48759621691873 109.75401021272998 H 0.0 **** 0.06
25956 C 82.55765199162892 31.318652089453337 19.04214325635087 C 0.0 **** -0.24
25957 H 83.0205829022803 31.2153243331353 18.061292686185737 H 0.0 **** 0.06
25958 H 81.50292419312638 31.050282265458655 18.97690141073818 H 0.0 **** 0.06
25959 H 82.65086366505017 32.35022548185654 19.381242737506454 H 0.0 **** 0.06
25960 H 83.05788974782263 30.657712103159625 19.751170175702867 H 0.0 **** 0.06
25961 C 62.58281915835366 101.42739878631869 47.22669075990137 C 0.0 **** -0.24
25962 H 62.16722591742855 102.04612429113689 48.02205581087145 H 0.0 **** 0.06
25963 H 62.10199239001679 101.67893462824262 46.28116449642101 H 0.0 **** 0.06
25964 H 62.408035965525244 100.37619887832435 47.45558185857334 H 0.0 **** 0.06
25965 H 63.654971763575276 101.60885123950118 47.14887447239471 H 0.0 **** 0.06
25966 C 32.91610836464969 108.26649211331107 11.96064013502821 C 0.0 **** -0.24
25967 H 31.869171555629038 108.40799339849625 11.691728856037614 H 0.0 **** 0.06
25968 H 32.99202562601414 107.50168367937971 12.733841407380798 H 0.0 **** 0.06
25969 H 33.32408506489695 109.20451966389425 12.336540193981627 H 0.0 **** 0.06
25970 H 33.47716895080052 107.9531742705476 11.080772277565874 H 0.0 **** 0.06
25971 C 3.712230133565525 26.37887179034169 79.83236313344446 C 0.0 **** -0.24
25972 H 4.39438353849016 27.22784285976678 79.78627174981432 H 0.0 **** 0.06
25973 H 4.217050457199775 25.487979998099547 79.45769413909846 H 0.0 **** 0.06
25974 H 2.8336231968022307 26.584470991500552 79.22111248203947 H 0.0 **** 0.06
25975 H 3.4056617518593466 26.216141857207106 80.8657402976333 H 0.0 **** 0.06
25976 C 84.77414525682309 69.52579511328508 62.55008576689929 C 0.0 **** -0.24
25977 H 83.7482972581317 69.62585037187779 62.903060721173205 H 0.0 **** 0.06
25978 H 84.78540560523851 68.95449370539058 61.62177791418843 H 0.0 **** 0.06
25979 H 85.36884841008337 69.00935597530753 63.303328961839625 H 0.0 **** 0.06
25980 H 85.19421726252479 70.51586626500989 62.37165313667761 H 0.0 **** 0.06
25981 C 12.67427807877499 23.156683272522073 81.37561593720051 C 0.0 **** -0.24
25982 H 12.881484279746019 22.957345512708457 82.42739711598159 H 0.0 **** 0.06
25983 H 13.611476411742231 23.318307132128922 80.84431518475898 H 0.0 **** 0.06
25984 H 12.049758306717834 24.04573732504518 81.29133979345646 H 0.0 **** 0.06
25985 H 12.15209115007059 22.303719821105958 80.94116252679756 H 0.0 **** 0.06
25986 C 44.70309710357156 58.870321446432854 111.51107475349374 C 0.0 **** -0.24
25987 H 45.15897088388584 59.422689114499036 110.69029248929846 H 0.0 **** 0.06
25988 H 43.68846522351673 59.23395868628356 111.6740215820684 H 0.0 **** 0.06
25989 H 45.291797355596934 59.01654752081322 112.41775860794013 H 0.0 **** 0.06
25990 H 44.675108372255 57.809777081640334 111.26338388501637 H 0.0 **** 0.06
25991 C 22.576889375784106 4.568886397205034 55.16612896455712 C 0.0 **** -0.24
25992 H 22.72260073819598 4.5277711874849444 54.08661272916453 H 0.0 **** 0.06
25993 H 22.03841232690401 3.6794496050081023 55.49372815599065 H 0.0 **** 0.06
25994 H 21.999324770142792 5.458174015029954 55.41983007138816 H 0.0 **** 0.06
25995 H 23.54608748695243 4.610937027325207 55.66149875479516 H 0.0 **** 0.06
25996 C 33.24783848497594 34.836960682575686 66.49179219529597 C 0.0 **** -0.24
25997 H 33.83507402771184 35.195620392821965 67.33673902485077 H 0.0 **** 0.06
25998 H 32.90166586436122 35.68673934698946 65.90220473277435 H 0.0 **** 0.06
25999 H 32.38816074566459 34.276296218867536 66.85942669175819 H 0.0 **** 0.06
26000 H 33.86515564332131 34.18974861065148 65.86882140024676 H 0.0 **** 0.06
26001 C 50.158925293640294 12.20353326874016 91.92637842533509 C 0.0 **** -0.24
26002 H 50.11538404071021 11.319462122665925 91.29000279573489 H 0.0 **** 0.06
26003 H 49.26468442014291 12.247035045769167 92.54930016544773 H 0.0 **** 0.06
26004 H 50.21263539598428 13.096872563451768 91.30440682975564 H 0.0 **** 0.06
26005 H 51.04308514155073 12.149779086380477 92.56165034413249 H 0.0 **** 0.06
26006 C 53.15551788530212 52.921916408171114 16.14371573660614 C 0.0 **** -0.24
26007 H 52.24855886715909 52.51412977398982 15.696045075171526 H 0.0 **** 0.06
26008 H 53.089453739075 54.00955893526788 16.172243238316412 H 0.0 **** 0.06
26009 H 54.019241800794646 52.62556551642488 15.549078315122259 H 0.0 **** 0.06
26010 H 53.264317943977176 52.53765993677785 17.15792777871195 H 0.0 **** 0.06
26011 C 56.587158280522345 25.706082988806543 112.68006099272912 C 0.0 **** -0.24
26012 H 56.48194251686894 25.20741484738211 113.64333522964147 H 0.0 **** 0.06
26013 H 57.59515214099001 26.111699913653226 112.59070290540716 H 0.0 **** 0.06
26014 H 55.86080463257597 26.514576495021714 112.60852020636509 H 0.0 **** 0.06
26015 H 56.412473282524815 24.987906401741526 111.87926634688841 H 0.0 **** 0.06
26016 C 6.039073420356575 37.852913264351 29.810139572910714 C 0.0 **** -0.24
26017 H 4.958745111926389 37.73659150744845 29.728607354349208 H 0.0 **** 0.06
26018 H 6.37116125355006 37.49274993976661 30.78346611772264 H 0.0 **** 0.06
26019 H 6.300121207042146 38.90644264732015 29.703099732447754 H 0.0 **** 0.06
26020 H 6.525708170384407 37.276477226748256 29.02307877820408 H 0.0 **** 0.06
26021 C 87.28680180691335 36.14369897466074 79.52964246223333 C 0.0 **** -0.24
26022 H 88.02617469260366 36.60256626580434 78.87186575129567 H 0.0 **** 0.06
26023 H 87.79676666436835 35.60854444160691 80.33053696949595 H 0.0 **** 0.06
26024 H 86.67478508769219 35.4465109308689 78.95793809299244 H 0.0 **** 0.06
26025 H 86.65109571513825 36.91961080194113 79.95755392697491 H 0.0 **** 0.06
26026 C 60.796020748710475 37.05679966762723 47.2398104286273 C 0.0 **** -0.24
26027 H 60.83741093712851 36.11749686911807 47.79194238911719 H 0.0 **** 0.06
26028 H 61.76287261201759 37.5585891242811 47.30386132479634 H 0.0 **** 0.06
26029 H 60.02509865453496 37.69672710214549 47.67000062175071 H 0.0 **** 0.06
26030 H 60.559705671680035 36.85518449833893 46.19552359018514 H 0.0 **** 0.06
26031 C 64.19200795663534 21.77012496385018 71.24838293219382 C 0.0 **** -0.24
26032 H 63.47912962252718 22.550953462293222 70.9852730030999 H 0.0 **** 0.06
26033 H 64.65198653278549 22.00607367376284 72.2083894494814 H 0.0 **** 0.06
26034 H 64.96331831561963 21.70959758178907 70.48056894341981 H 0.0 **** 0.06
26035 H 63.673597355609076 20.8138751375555 71.31930033277409 H 0.0 **** 0.06
26036 C 86.68794362993899 62.30994394101617 76.18004009850506 C 0.0 **** -0.24
26037 H 85.63741358463585 62.51829460606896 75.97652548552571 H 0.0 **** 0.06
26038 H 86.85083259684518 62.2851243292954 77.25732172449636 H 0.0 **** 0.06
26039 H 87.30475993878662 63.091462771366594 75.73705649042347 H 0.0 **** 0.06
26040 H 86.95664032773811 61.346040609359136 75.74886037267964 H 0.0 **** 0.06
26041 C 28.395068579418876 103.10050431452792 106.56062534267483 C 0.0 **** -0.24
26042 H 28.39894773454933 102.14815874156461 107.0905040040819 H 0.0 **** 0.06
26043 H 27.38721508057896 103.51612549418732 106.57042037341984 H 0.0 **** 0.06
26044 H 28.713502732363324 102.9446973557151 105.53042372513512 H 0.0 **** 0.06
26045 H 29.078539214444277 103.79254101487726 107.05236677531059 H 0.0 **** 0.06
26046 C 61.1602820238071 103.68179728916374 59.188006890544955 C 0.0 **** -0.24
26047 H 62.15306255117257 104.07350279793665 59.411799721997966 H 0.0 **** 0.06
26048 H 60.41523362084169 104.22691270071824 59.76901439219563 H 0.0 **** 0.06
26049 H 61.12091188434776 102.62371256588756 59.44779197837141 H 0.0 **** 0.06
26050 H 60.95325984137237 103.80318696217012 58.125207350429264 H 0.0 **** 0.06
26051 C 24.587317900981247 85.27993421928295 112.29144743474409 C 0.0 **** -0.24
26052 H 24.383453525976506 86.04962573765903 113.03470226401588 H 0.0 **** 0.06
26053 H 23.645686890989065 84.88253189277339 111.91165798276873 H 0.0 **** 0.06
26054 H 25.162376351148893 84.47501133995348 112.7495429605919 H 0.0 **** 0.06
26055 H 25.158098291873955 85.7109417351408 111.46939891040414 H 0.0 **** 0.06
26056 C 52.81163330475453 94.61531375496543 114.47509304795824 C 0.0 **** -0.24
26057 H 52.175972414709506 94.99937873045548 113.67762778315694 H 0.0 **** 0.06
26058 H 53.319095955392285 93.71283476757333 114.1320959973709 H 0.0 **** 0.06
26059 H 52.19984431874931 94.37947512250713 115.34637427883882 H 0.0 **** 0.06
26060 H 53.551996603358084 95.36822959545589 114.74400647953456 H 0.0 **** 0.06
26061 C 29.678140830283226 17.19041471034751 59.79008746550011 C 0.0 **** -0.24
26062 H 30.007412060841403 17.35476000337954 60.816553582840626 H 0.0 **** 0.06
26063 H 29.982161927010125 16.194077109636794 59.46698037391354 H 0.0 **** 0.06
26064 H 30.130905148933913 17.937944254476236 59.13886892002007 H 0.0 **** 0.06
26065 H 28.59255652341067 17.27378362799584 59.73983925404019 H 0.0 **** 0.06
26066 C 54.87300568044964 55.77413938338043 59.67812337123718 C 0.0 **** -0.24
26067 H 54.12311513594591 56.268353523304995 59.06044861097497 H 0.0 **** 0.06
26068 H 54.441725887436746 55.53255891343525 60.65034004162054 H 0.0 **** 0.06
26069 H 55.72725593737948 56.4377185785429 59.81452622172725 H 0.0 **** 0.06
26070 H 55.199842833409434 54.85666180479603 59.1883592009458 H 0.0 **** 0.06
26071 C 51.459118603457455 80.17132666689884 92.32209330368525 C 0.0 **** -0.24
26072 H 51.667573823114196 79.56672459762538 93.20410194710098 H 0.0 **** 0.06
26073 H 50.7818211042146 79.62912566281258 91.66194881519897 H 0.0 **** 0.06
26074 H 52.39053890384969 80.37855282731333 91.79563526115227 H 0.0 **** 0.06
26075 H 50.99704919387307 81.11053946457871 92.62590694032862 H 0.0 **** 0.06
26076 C 12.209092952470503 76.36415461414491 34.03550546341671 C 0.0 **** -0.24
26077 H 11.381951399399192 76.925019563498 34.47091667826231 H 0.0 **** 0.06
26078 H 11.885471137058968 75.90771893676917 33.10007992058957 H 0.0 **** 0.06
26079 H 12.526016828209698 75.58690194858147 34.7297691147328 H 0.0 **** 0.06
26080 H 13.042783926119188 77.03918445302804 33.84092474071664 H 0.0 **** 0.06
26081 C 10.474036754874788 86.01809848439262 73.52947143585695 C 0.0 **** -0.24
26082 H 11.40465782213903 86.40269664310796 73.11238363934456 H 0.0 **** 0.06
26083 H 9.827128369855302 86.85314128950853 73.80371543981539 H 0.0 **** 0.06
26084 H 10.692129623971937 85.42176461083673 74.41460977710857 H 0.0 **** 0.06
26085 H 9.97189019375432 85.39820023437045 72.78666288053897 H 0.0 **** 0.06
26086 C 108.75547064163165 103.59453081280049 44.672384283466634 C 0.0 **** -0.24
26087 H 109.65422983626695 104.1704762451815 44.45078024288403 H 0.0 **** 0.06
26088 H 109.02080697139047 102.54800095586964 44.81908258116843 H 0.0 **** 0.06
26089 H 108.05602429706303 103.67975737617974 43.84097116275867 H 0.0 **** 0.06
26090 H 108.29107835433165 103.98197527905128 45.57996029726246 H 0.0 **** 0.06
26091 C 19.50930212453966 66.00246208142107 82.07071811681044 C 0.0 **** -0.24
26092 H 20.120828696604946 66.72212745759145 81.5259332192588 H 0.0 **** 0.06
26093 H 18.461676426676206 66.29739483470951 82.0098196056797 H 0.0 **** 0.06
26094 H 19.820630127459026 65.97817688616084 83.11473134591238 H 0.0 **** 0.06
26095 H 19.635121647053467 65.01328333530557 81.63048702924236 H 0.0 **** 0.06
26096 C 28.64043443265905 112.8997689575018 112.75382422406769 C 0.0 **** -0.24
26097 H 27.788662696100232 113.5744838350671 112.6687284492255 H 0.0 **** 0.06
26098 H 29.051189130621196 112.70538682465116 111.76323212833641 H 0.0 **** 0.06
26099 H 28.316165198693227 111.96128533555304 113.20422243319379 H 0.0 **** 0.06
26100 H 29.405354770668737 113.35851575834528 113.38123785615139 H 0.0 **** 0.06
26101 C 104.5806036003678 5.064817205695192 47.026415768074855 C 0.0 **** -0.24
26102 H 105.30129415325655 4.285462599436135 46.7765915473791 H 0.0 **** 0.06
26103 H 103.57979265878612 4.7376471904663635 46.745033857736416 H 0.0 **** 0.06
26104 H 104.83123805272066 5.977630643709739 46.485111226202264 H 0.0 **** 0.06
26105 H 104.6128184432639 5.257784398888875 48.098927980683754 H 0.0 **** 0.06
26106 C 58.24509256417801 113.69612338718119 81.37338012600492 C 0.0 **** -0.24
26107 H 58.03134416574119 113.08053888710549 80.4997990587728 H 0.0 **** 0.06
26108 H 58.96873717216309 114.46684546445552 81.10675013375527 H 0.0 **** 0.06
26109 H 58.655711328515864 113.07074810189339 82.16661816343401 H 0.0 **** 0.06
26110 H 57.32467462973082 114.1646984752621 81.72082901425892 H 0.0 **** 0.06
26111 C 103.55162674980221 11.910684938822037 73.49373119693418 C 0.0 **** -0.24
26112 H 102.77540781871511 12.46382970248284 72.96375509646919 H 0.0 **** 0.06
26113 H 103.57102510576485 10.880528628004079 73.1367784199442 H 0.0 **** 0.06
26114 H 103.33860659687394 11.920759967729179 74.56247318583031 H 0.0 **** 0.06
26115 H 104.51987793478531 12.377464489321884 73.31124809702864 H 0.0 **** 0.06
26116 C 72.28629597182999 82.10061542191346 55.82927583764808 C 0.0 **** -0.24
26117 H 72.77329614112139 81.20591845832018 55.441531428779825 H 0.0 **** 0.06
26118 H 71.37635540307119 81.81767608961911 56.35962583414761 H 0.0 **** 0.06
26119 H 72.0339670464976 82.76337497588116 55.002159533331394 H 0.0 **** 0.06
26120 H 72.96178071860265 82.61452524458485 56.513649742774476 H 0.0 **** 0.06
26121 C 49.877674487112074 65.86279773700493 41.82139169140613 C 0.0 **** -0.24
26122 H 50.60753323075005 66.64930316351435 41.62880665058731 H 0.0 **** 0.06
26123 H 50.31902147302981 65.10982594443253 42.473976432520686 H 0.0 **** 0.06
26124 H 49.58493819131712 65.40027243913492 40.87879879717414 H 0.0 **** 0.06
26125 H 48.999458767602164 66.29224529454164 42.303131745867915 H 0.0 **** 0.06
26126 C 41.52140711965578 98.63428173187336 112.53511660886258 C 0.0 **** -0.24
26127 H 41.62168666106476 99.56779765816864 111.9817961243767 H 0.0 **** 0.06
26128 H 40.46837382811924 98.35733166128608 112.59246765995854 H 0.0 **** 0.06
26129 H 41.91878256034818 98.76431180401467 113.54156455769206 H 0.0 **** 0.06
26130 H 42.07666315462063 97.84715467462354 112.02333307838944 H 0.0 **** 0.06
26131 C 97.35203743304032 47.37960504518054 103.12086440750298 C 0.0 **** -0.24
26132 H 96.72730670736831 48.27168550395686 103.156606373735 H 0.0 **** 0.06
26133 H 98.25015549217511 47.54065353880651 103.71809547938932 H 0.0 **** 0.06
26134 H 97.63503707955209 47.17650687775091 102.08751405637145 H 0.0 **** 0.06
26135 H 96.79661899006348 46.531052899675046 103.51987210534372 H 0.0 **** 0.06
26136 C 93.04854579321716 10.618459214089683 48.28170765950935 C 0.0 **** -0.24
26137 H 93.01959478163434 9.561922300776246 48.01628137409142 H 0.0 **** 0.06
26138 H 93.90789028053507 11.089324933108344 47.802593712862716 H 0.0 **** 0.06
26139 H 93.13570213689528 10.718882458131702 49.36339545029551 H 0.0 **** 0.06
26140 H 92.13256065677578 11.10303256792497 47.94424888148043 H 0.0 **** 0.06
26141 C 99.39543238283738 33.68479555120646 39.855616929175596 C 0.0 **** -0.24
26142 H 98.74530476099181 33.26055253550217 39.089972405838296 H 0.0 **** 0.06
26143 H 100.1845762700292 34.26602732181823 39.37876988844465 H 0.0 **** 0.06
26144 H 99.84003329702699 32.87897031806466 40.44038810224038 H 0.0 **** 0.06
26145 H 98.81192176477026 34.33045993993309 40.51052173563488 H 0.0 **** 0.06
26146 C 57.41085267634456 110.46733114417239 65.65835305975713 C 0.0 **** -0.24
26147 H 57.587864013403944 111.36005503508946 66.25704456352807 H 0.0 **** 0.06
26148 H 56.775050470622446 109.77688321967472 66.21391301023894 H 0.0 **** 0.06
26149 H 58.363580230567166 109.98513489908376 65.43605004773644 H 0.0 **** 0.06
26150 H 56.918915146263146 110.74630397328949 64.72673019551866 H 0.0 **** 0.06
26151 C 61.62027365034385 0.12827889280181637 26.790429129869835 C 0.0 **** -0.24
26152 H 61.989621201481725 -0.8456739429725104 26.470876695729885 H 0.0 **** 0.06
26153 H 62.20511581072509 0.9134972641175381 26.309415182232442 H 0.0 **** 0.06
26154 H 61.71593198306513 0.21578835433655286 27.87344262193676 H 0.0 **** 0.06
26155 H 60.573102118657744 0.23069471457262125 26.50862912295537 H 0.0 **** 0.06
26156 C 110.79921837251433 38.69714819312128 26.327101584208123 C 0.0 **** -0.24
26157 H 110.31202465133053 37.91743131128564 26.913430393775883 H 0.0 **** 0.06
26158 H 111.34844921786112 39.362218017896794 26.993771051715385 H 0.0 **** 0.06
26159 H 110.04493879381326 39.26781641802427 25.78476065430135 H 0.0 **** 0.06
26160 H 111.48929419596382 38.24079585117758 25.61753802614814 H 0.0 **** 0.06
26161 C 44.10345331385895 47.440167431263916 91.19021353023271 C 0.0 **** -0.24
26162 H 45.127939731506245 47.80667903994653 91.12959715425234 H 0.0 **** 0.06
26163 H 43.45945527106633 48.22785893256005 91.58184498987481 H 0.0 **** 0.06
26164 H 44.06594348427764 46.57618756948813 91.85403608896837 H 0.0 **** 0.06
26165 H 43.76248560794886 47.15044286271767 90.19730158213957 H 0.0 **** 0.06
26166 C 9.322562790693084 69.39315275447157 75.92240132517321 C 0.0 **** -0.24
26167 H 9.545649068340264 69.74406394514213 76.93084740880639 H 0.0 **** 0.06
26168 H 8.306246160266728 69.68301909264864 75.65420995830675 H 0.0 **** 0.06
26169 H 9.412252459367387 68.30754432567483 75.88775108636383 H 0.0 **** 0.06
26170 H 10.025605414017026 69.83888229478003 75.21878296535789 H 0.0 **** 0.06
26171 C 49.914187110111584 65.17486832380732 67.25107090827315 C 0.0 **** -0.24
26172 H 50.990925851602555 65.10867606793622 67.41195878527455 H 0.0 **** 0.06
26173 H 49.531786353093224 66.07992760573916 67.7243889669871 H 0.0 **** 0.06
26174 H 49.42799699562531 64.30307519027554 67.68939668157668 H 0.0 **** 0.06
26175 H 49.708672962277745 65.2076682154997 66.18170914307943 H 0.0 **** 0.06
26176 C 81.62672344587742 70.5139164103121 80.78124136228044 C 0.0 **** -0.24
26177 H 82.71512273750693 70.53550229088377 80.74682506813393 H 0.0 **** 0.06
26178 H 81.2803156136136 71.04626002185178 81.66737931826721 H 0.0 **** 0.06
26179 H 81.28518265137438 69.47922168017121 80.82130752830655 H 0.0 **** 0.06
26180 H 81.22593787384096 70.99416015856637 79.88818231479347 H 0.0 **** 0.06
26181 C 47.290292914039014 45.46039581711578 25.65555836078687 C 0.0 **** -0.24
26182 H 48.06556167619044 44.7818523059463 25.299358111483343 H 0.0 **** 0.06
26183 H 46.66306659220385 44.946023549875335 26.384486982625788 H 0.0 **** 0.06
26184 H 46.67747547098395 45.785394963013175 24.814164310253602 H 0.0 **** 0.06
26185 H 47.75401472979706 46.32907523890887 26.123668104057828 H 0.0 **** 0.06
26186 C 96.31270172337835 9.04612854742851 50.10171750221548 C 0.0 **** -0.24
26187 H 96.02792199970742 8.07157329310084 50.49931675667301 H 0.0 **** 0.06
26188 H 97.25849770842086 8.956891430017265 49.56549799960925 H 0.0 **** 0.06
26189 H 96.4250573010788 9.75444794173427 50.9223565191333 H 0.0 **** 0.06
26190 H 95.5399037417481 9.399994330877064 49.41940244689755 H 0.0 **** 0.06
26191 C 99.57316236843302 32.2688143938812 66.51866636712725 C 0.0 **** -0.24
26192 H 100.64131256373217 32.48814789368424 66.49933748956539 H 0.0 **** 0.06
26193 H 99.01072442658698 33.202222904771105 66.48053867514031 H 0.0 **** 0.06
26194 H 99.32866489497795 31.7345584293096 67.4363226526612 H 0.0 **** 0.06
26195 H 99.31390933594119 31.65179379653432 65.65840071341353 H 0.0 **** 0.06
26196 C 112.21562845150089 107.29614182446139 97.17485261492283 C 0.0 **** -0.24
26197 H 112.23572845208878 106.32837750502972 97.67566769879369 H 0.0 **** 0.06
26198 H 113.21418735060087 107.53682735269615 96.8090914947162 H 0.0 **** 0.06
26199 H 111.89064300171316 108.06196860748445 97.87867241708301 H 0.0 **** 0.06
26200 H 111.52076722177048 107.25554010861002 96.33558747891078 H 0.0 **** 0.06
26201 C 96.25559700259913 55.45206951454825 65.9730848993392 C 0.0 **** -0.24
26202 H 96.60132850437452 54.55890300287769 66.49461431519171 H 0.0 **** 0.06
26203 H 95.1836103189703 55.57162435169179 66.12935304024944 H 0.0 **** 0.06
26204 H 96.45885315930121 55.35073233845836 64.90722269455244 H 0.0 **** 0.06
26205 H 96.78018404070383 56.32443476984952 66.36204610674486 H 0.0 **** 0.06
26206 C 93.05795530399507 54.91477665989663 4.707256369048295 C 0.0 **** -0.24
26207 H 92.91499370182473 53.99340207488791 4.142940506646076 H 0.0 **** 0.06
26208 H 93.19093414003228 54.67676330683349 5.7627912329698106 H 0.0 **** 0.06
26209 H 92.18413927571675 55.55401879933487 4.584975809879959 H 0.0 **** 0.06
26210 H 93.94308688202528 55.43367106041012 4.337030302963257 H 0.0 **** 0.06
26211 C 65.25571411930352 30.951093679377834 56.69244282246885 C 0.0 **** -0.24
26212 H 64.80731660332344 30.278248566926493 57.4230970840367 H 0.0 **** 0.06
26213 H 66.33055267476414 30.77520347449098 56.647362029476994 H 0.0 **** 0.06
26214 H 65.0681175266786 31.984109098816702 56.98798352049414 H 0.0 **** 0.06
26215 H 64.81494574118668 30.76786525766323 55.71242080880603 H 0.0 **** 0.06
26216 C 99.58655488555047 53.36127093202816 108.42419552848428 C 0.0 **** -0.24
26217 H 99.85080055062525 52.50489160411803 107.80289906710654 H 0.0 **** 0.06
26218 H 100.27109055802752 54.183478922192705 108.21895077044839 H 0.0 **** 0.06
26219 H 99.65752158067869 53.08204938691449 109.47573328191079 H 0.0 **** 0.06
26220 H 98.56665754376827 53.671512524096556 108.19817542296646 H 0.0 **** 0.06
26221 C 84.0461002623175 7.9150022108169225 16.14532139516851 C 0.0 **** -0.24
26222 H 83.44704127608853 8.52757699436863 16.81896596697956 H 0.0 **** 0.06
26223 H 84.88635389567268 7.488297851545994 16.692917749883833 H 0.0 **** 0.06
26224 H 84.42016641355772 8.532528173603168 15.32849352168759 H 0.0 **** 0.06
26225 H 83.4298446682379 7.11150615885262 15.740930820097589 H 0.0 **** 0.06
26226 C 50.643614443251494 1.968358998914752 67.3600000266416 C 0.0 **** -0.24
26227 H 50.23347390942567 1.5561862501255916 68.28200595240683 H 0.0 **** 0.06
26228 H 51.08508746531906 2.943530191457711 67.56280832728233 H 0.0 **** 0.06
26229 H 49.84595566847388 2.076153491872759 66.62496711357991 H 0.0 **** 0.06
26230 H 51.407989402632424 1.2961052484353104 66.96997646003173 H 0.0 **** 0.06
26231 C 82.66034476382237 40.30586322103835 41.25924708052759 C 0.0 **** -0.24
26232 H 82.3190867576725 40.872390989194315 42.124970908459716 H 0.0 **** 0.06
26233 H 82.91106284885421 39.29022702281077 41.56517043862698 H 0.0 **** 0.06
26234 H 83.54300342879196 40.78646805400271 40.83616282805474 H 0.0 **** 0.06
26235 H 81.86957725303677 40.276072660512014 40.51016979754155 H 0.0 **** 0.06
26236 C 34.9793608905718 0.579435774919375 72.8504534343246 C 0.0 **** -0.24
26237 H 35.29921914376132 1.2320040669457342 72.0375641896785 H 0.0 **** 0.06
26238 H 34.32145785201021 -0.19513911451360855 72.45681036373207 H 0.0 **** 0.06
26239 H 34.44505640791954 1.1653647839993369 73.5972039784788 H 0.0 **** 0.06
26240 H 35.85341250783637 0.11576183967278553 73.30849147156971 H 0.0 **** 0.06
26241 C 78.84629604289398 19.97101878925676 90.66482504479349 C 0.0 **** -0.24
26242 H 78.87312719385079 21.05084923699144 90.51252615253526 H 0.0 **** 0.06
26243 H 79.4717644479947 19.48372742179336 89.91642475797835 H 0.0 **** 0.06
26244 H 77.82086676027961 19.616170416616427 90.56856034421433 H 0.0 **** 0.06
26245 H 79.22043230051469 19.73591783293915 91.66125926583035 H 0.0 **** 0.06
26246 C 4.081694197656333 93.8952335813743 13.940705996582835 C 0.0 **** -0.24
26247 H 3.8789301397286238 93.0397252501518 13.296518306929869 H 0.0 **** 0.06
26248 H 4.886460955178791 93.64499010693112 14.633606677245552 H 0.0 **** 0.06
26249 H 3.1828692751930703 94.14754704852129 14.502876965001235 H 0.0 **** 0.06
26250 H 4.380404833384489 94.74715806951377 13.33019952235125 H 0.0 **** 0.06
26251 C 43.97022003595771 18.26087304106258 96.08553000506791 C 0.0 **** -0.24
26252 H 44.632021578809145 17.4857514713822 96.47104496615225 H 0.0 **** 0.06
26253 H 44.01054070135007 18.2648271605229 94.99602911275804 H 0.0 **** 0.06
26254 H 44.288682606783425 19.23188548531384 96.4650098975523 H 0.0 **** 0.06
26255 H 42.949642532249584 18.060185928543063 96.41154963361703 H 0.0 **** 0.06
26256 C 1.2710560432416855 86.57309176030304 37.63639928256546 C 0.0 **** -0.24
26257 H 0.345490434260455 86.91940127476876 38.09577663387637 H 0.0 **** 0.06
26258 H 1.0615421022387181 86.19580374655287 36.63552056287094 H 0.0 **** 0.06
26259 H 1.7012969834216847 85.77585824825591 38.24376334042432 H 0.0 **** 0.06
26260 H 1.9763282015604489 87.40145139916332 37.57332777504328 H 0.0 **** 0.06
26261 C 9.572496835792908 61.713585832405855 67.51872078060126 C 0.0 **** -0.24
26262 H 10.029818593170653 62.62188268046535 67.12646296353665 H 0.0 **** 0.06
26263 H 10.303870756162357 60.90505896274965 67.5086669680181 H 0.0 **** 0.06
26264 H 8.719152261603082 61.439598332753675 66.89854062148964 H 0.0 **** 0.06
26265 H 9.237804236131712 61.8885205969429 68.54098455281343 H 0.0 **** 0.06
26266 C 41.298597095386185 57.287823423030176 46.10407956449856 C 0.0 **** -0.24
26267 H 40.82898155658074 58.27108344001181 46.121672546998724 H 0.0 **** 0.06
26268 H 42.207173394651136 57.32950098216544 45.502427083475766 H 0.0 **** 0.06
26269 H 40.6086906135981 56.56369228164351 45.67134447022058 H 0.0 **** 0.06
26270 H 41.55068552030184 56.98771909911791 47.12197025925513 H 0.0 **** 0.06
26271 C 103.96225728408147 54.65075057957144 44.75520049174236 C 0.0 **** -0.24
26272 H 103.44104392749092 53.81880992964322 44.28137356416286 H 0.0 **** 0.06
26273 H 104.52571271893618 55.202589780676206 44.002559777685775 H 0.0 **** 0.06
26274 H 104.64556101203321 54.26743541763477 45.512449465496076 H 0.0 **** 0.06
26275 H 103.23585926320622 55.314682639935235 45.224329166611284 H 0.0 **** 0.06
26276 C 9.620663114284497 54.90508819731745 3.148768788420597 C 0.0 **** -0.24
26277 H 9.42060263973596 55.536952547404105 4.013999273469551 H 0.0 **** 0.06
26278 H 8.761066298179685 54.26114177840135 2.963288680931498 H 0.0 **** 0.06
26279 H 10.500004223488446 54.29128059220059 3.343021126298197 H 0.0 **** 0.06
26280 H 9.799838623155864 55.53181392111877 2.2747667311301996 H 0.0 **** 0.06
26281 C 71.97502725829631 87.59585175755129 68.55985615073675 C 0.0 **** -0.24
26282 H 71.48428212410889 87.1134492324382 67.71500200547946 H 0.0 **** 0.06
26283 H 71.23573034745422 87.82253292647795 69.32843295938603 H 0.0 **** 0.06
26284 H 72.44796789717898 88.51890906633832 68.22697505966468 H 0.0 **** 0.06
26285 H 72.73150769041008 86.92669432425402 68.97131612378537 H 0.0 **** 0.06
26286 C 45.683273124169546 86.31129346668124 61.96562251311883 C 0.0 **** -0.24
26287 H 46.02258273124448 85.2763462230437 61.911494806391104 H 0.0 **** 0.06
26288 H 46.44383654064802 86.91649521602073 62.45919692476603 H 0.0 **** 0.06
26289 H 44.75478812822075 86.35914871384341 62.5347385391901 H 0.0 **** 0.06
26290 H 45.5126280154372 86.69036896110873 60.95864907889779 H 0.0 **** 0.06
26291 C 65.97223711936738 93.00895561140237 107.83431116560733 C 0.0 **** -0.24
26292 H 65.04115378608766 93.56778121330362 107.73486075799642 H 0.0 **** 0.06
26293 H 66.58985250194684 93.46801970523138 108.60598073613014 H 0.0 **** 0.06
26294 H 66.50745518464551 93.022175131516 106.88496696628104 H 0.0 **** 0.06
26295 H 65.74867514728894 91.97861371089203 108.1117948481225 H 0.0 **** 0.06
26296 C 24.813422885373853 14.423999466889043 109.70365872938729 C 0.0 **** -0.24
26297 H 25.56228140458572 15.152459422644426 110.01655110037053 H 0.0 **** 0.06
26298 H 24.04023913639862 14.347109542895168 110.46809079494115 H 0.0 **** 0.06
26299 H 25.287902645511693 13.453302232058007 109.56673437937869 H 0.0 **** 0.06
26300 H 24.365791681914914 14.74588956847299 108.76326166672732 H 0.0 **** 0.06
26301 C 38.26946642844277 36.57198241782034 77.94293169238898 C 0.0 **** -0.24
26302 H 39.084738237073736 36.57600576949998 77.21940957898971 H 0.0 **** 0.06
26303 H 37.90059347778919 37.58860749444274 78.07952877332292 H 0.0 **** 0.06
26304 H 38.63163745800614 36.18540860492124 78.89562544908603 H 0.0 **** 0.06
26305 H 37.462306459258116 35.93783471649062 77.57724604884498 H 0.0 **** 0.06
26306 C 8.728435004329299 89.19609451832633 12.612007864463862 C 0.0 **** -0.24
26307 H 7.912782222072082 88.51599839485364 12.858380305043056 H 0.0 **** 0.06
26308 H 9.559755272920867 88.62907937686246 12.192591582407061 H 0.0 **** 0.06
26309 H 9.057766181825286 89.70920869151074 13.516144711311654 H 0.0 **** 0.06
26310 H 8.382738334987636 89.92893113740368 11.883591910313811 H 0.0 **** 0.06
26311 C 49.48224715947461 104.75321094382379 53.03827865972747 C 0.0 **** -0.24
26312 H 50.13079877537223 104.5056932127517 53.878022232972256 H 0.0 **** 0.06
26313 H 48.884719354006165 105.63053803115874 53.28706428635735 H 0.0 **** 0.06
26314 H 48.82233037909663 103.91039165142092 52.82874076195702 H 0.0 **** 0.06
26315 H 50.09087038567557 104.96497815122332 52.158668506015374 H 0.0 **** 0.06
26316 C 94.00667975709615 91.25871766929501 65.77660016703877 C 0.0 **** -0.24
26317 H 93.06351418911262 90.97771942318028 65.30942977479785 H 0.0 **** 0.06
26318 H 94.12261817384041 90.71657591510441 66.71551081352068 H 0.0 **** 0.06
26319 H 94.01048224178874 92.33079167749793 65.97182921277405 H 0.0 **** 0.06
26320 H 94.83143468538111 91.00851673896189 65.10835587860753 H 0.0 **** 0.06
26321 C 43.56138988641601 23.86436771193502 23.579849977538316 C 0.0 **** -0.24
26322 H 43.52645650696735 22.843297223736506 23.95952518488548 H 0.0 **** 0.06
26323 H 44.34907889484137 23.947264078401663 22.83066521991688 H 0.0 **** 0.06
26324 H 43.7675246032729 24.549786250042153 24.40173710020332 H 0.0 **** 0.06
26325 H 42.60214551725963 24.11652118692492 23.128702139428952 H 0.0 **** 0.06
26326 C 68.05810823744775 54.69395541737515 58.16410463444605 C 0.0 **** -0.24
26327 H 67.5167789376452 55.63242729145662 58.04406010466698 H 0.0 **** 0.06
26328 H 68.43821930609738 54.621004030143524 59.18320533608241 H 0.0 **** 0.06
26329 H 68.89241476026586 54.66357212746857 57.46278225640262 H 0.0 **** 0.06
26330 H 67.3862571487357 53.859074414413215 57.96573538235563 H 0.0 **** 0.06
26331 C 21.24988749383607 74.67674189651657 51.10010222334466 C 0.0 **** -0.24
26332 H 22.273247253093217 74.37319223812864 51.32500457860078 H 0.0 **** 0.06
26333 H 20.572669812159177 73.84769066668872 51.30778197606169 H 0.0 **** 0.06
26334 H 21.175682244623033 74.95251117688942 50.048845185710164 H 0.0 **** 0.06
26335 H 20.979757104588742 75.5306667463093 51.72107682733028 H 0.0 **** 0.06
26336 C 74.7109251136049 82.31985088440922 53.47049220167045 C 0.0 **** -0.24
26337 H 75.29632408911267 82.19647734810707 52.559316825001815 H 0.0 **** 0.06
26338 H 73.69602119645015 81.95729474265337 53.30034882318614 H 0.0 **** 0.06
26339 H 74.67904067144148 83.37486754401291 53.7410781185946 H 0.0 **** 0.06
26340 H 75.16982289346593 81.7502891189811 54.27727944222718 H 0.0 **** 0.06
26341 C 21.429003865249314 17.822853370982926 73.04370097046862 C 0.0 **** -0.24
26342 H 22.241339549073075 17.95135737904144 73.76003196389587 H 0.0 **** 0.06
26343 H 20.836554754936998 18.73670684867588 72.99942427109625 H 0.0 **** 0.06
26344 H 20.795184341665134 16.993121899491797 73.35918019671561 H 0.0 **** 0.06
26345 H 21.84372926700331 17.609224545682537 72.05888165393762 H 0.0 **** 0.06
26346 C 79.814111886929 79.1959697668216 51.614218655776625 C 0.0 **** -0.24
26347 H 79.69369203849688 79.73964363194435 52.550706928627314 H 0.0 **** 0.06
26348 H 79.04397700778466 78.42807676151284 51.53773216194588 H 0.0 **** 0.06
26349 H 80.7986593604331 78.72671292927812 51.59119782636199 H 0.0 **** 0.06
26350 H 79.72243924049351 79.88886588099845 50.77776802473504 H 0.0 **** 0.06
26351 C 108.84386591956142 36.518207833593664 73.84403659684972 C 0.0 **** -0.24
26352 H 107.75685133504975 36.58146703103694 73.88301178571979 H 0.0 **** 0.06
26353 H 109.19085643154418 35.78039488613473 74.5673609954896 H 0.0 **** 0.06
26354 H 109.2740585936223 37.491316233790656 74.0813694261422 H 0.0 **** 0.06
26355 H 109.15344272591021 36.21826801018457 72.8423999796697 H 0.0 **** 0.06
26356 C 62.81699418426321 110.04792316677623 91.86625671236878 C 0.0 **** -0.24
26357 H 62.29284929103555 110.99462385170321 91.74131107736392 H 0.0 **** 0.06
26358 H 62.09548308817435 109.25842392497023 92.07791982408479 H 0.0 **** 0.06
26359 H 63.51980575419809 110.12971167221039 92.69623030866187 H 0.0 **** 0.06
26360 H 63.36042580534671 109.80923790786586 90.9519241769526 H 0.0 **** 0.06
26361 C 3.0815327930429106 49.79908184450133 12.188247054323938 C 0.0 **** -0.24
26362 H 3.2983796076260177 50.70667293597904 11.624374322598158 H 0.0 **** 0.06
26363 H 2.0040282272870797 49.69969873028282 12.316311161373235 H 0.0 **** 0.06
26364 H 3.5612675946978243 49.85476026479381 13.165135459762524 H 0.0 **** 0.06
26365 H 3.46441169162712 48.93523895493951 11.64489287648459 H 0.0 **** 0.06
26366 C 79.1508734017782 42.37174347671714 34.90614308506315 C 0.0 **** -0.24
26367 H 79.568353365772 42.127064018396595 33.92919476302393 H 0.0 **** 0.06
26368 H 79.69817350422022 43.2117533593096 35.33430610363013 H 0.0 **** 0.06
26369 H 79.23693933978637 41.50747789240333 35.564719737587325 H 0.0 **** 0.06
26370 H 78.10026556586865 42.641436524949086 34.79518169542865 H 0.0 **** 0.06
26371 C 14.608695277328454 75.8944506841732 94.90220266403935 C 0.0 **** -0.24
26372 H 14.783098676523487 76.4737619901332 93.99602587858305 H 0.0 **** 0.06
26373 H 13.545206929229828 75.90825356854032 95.14339478690272 H 0.0 **** 0.06
26374 H 15.173832162187566 76.33068163684885 95.72626239994128 H 0.0 **** 0.06
26375 H 14.932951409410965 74.8658871618282 94.74367001131742 H 0.0 **** 0.06
26376 C 6.837541139194343 105.4118674000172 21.531931548323115 C 0.0 **** -0.24
26377 H 6.0075020579446345 105.60943612116364 22.210164010081968 H 0.0 **** 0.06
26378 H 6.8807500658314495 104.3444557486515 21.312400264178393 H 0.0 **** 0.06
26379 H 7.771149364576786 105.72483068827702 21.99946894702623 H 0.0 **** 0.06
26380 H 6.690702860442599 105.96775024372467 20.60563982027685 H 0.0 **** 0.06
26381 C 84.93984737660026 115.90775018728851 14.74387640385956 C 0.0 **** -0.24
26382 H 83.91622712297965 116.07886527276366 15.07675888450325 H 0.0 **** 0.06
26383 H 85.3244329413663 114.9979593539864 15.20397866708015 H 0.0 **** 0.06
26384 H 85.56154970417708 116.75463215426612 15.034953238558614 H 0.0 **** 0.06
26385 H 84.95513458646764 115.80194839025998 13.659623308753027 H 0.0 **** 0.06
26386 C 65.88106626736021 29.98965368717716 37.11523582485248 C 0.0 **** -0.24
26387 H 66.49962546706689 30.51805397893824 36.390433680337615 H 0.0 **** 0.06
26388 H 66.48545804548644 29.72186467072595 37.98255366742386 H 0.0 **** 0.06
26389 H 65.47921452635256 29.08570007538909 36.65872784204783 H 0.0 **** 0.06
26390 H 65.05991826071909 30.634216475520944 37.42994101385294 H 0.0 **** 0.06
26391 C 18.149828059238473 51.089293090653314 28.900249872183053 C 0.0 **** -0.24
26392 H 17.644222227075545 50.12621848451599 28.985401092357506 H 0.0 **** 0.06
26393 H 17.611613481721236 51.71942856543615 28.19215177960308 H 0.0 **** 0.06
26394 H 19.169171834180304 50.93312446770497 28.547391294712895 H 0.0 **** 0.06
26395 H 18.173164542459347 51.5744902567464 29.87541632203579 H 0.0 **** 0.06
26396 C 56.234107781634506 45.325634690096905 106.38730131578183 C 0.0 **** -0.24
26397 H 56.145928723114636 45.23743110223688 105.30499125422176 H 0.0 **** 0.06
26398 H 56.91994236948642 44.56356625739207 106.75851045121354 H 0.0 **** 0.06
26399 H 55.254518996145876 45.18554900686706 106.84422840080862 H 0.0 **** 0.06
26400 H 56.6163366474337 46.313938667320684 106.64277714124728 H 0.0 **** 0.06
26401 C 90.2339153287387 44.082460942321234 8.10046386644964 C 0.0 **** -0.24
26402 H 89.38226671869376 43.85988806625974 7.4574129131503515 H 0.0 **** 0.06
26403 H 91.12585695255677 44.21337564890797 7.487886504206653 H 0.0 **** 0.06
26404 H 90.38861653570297 43.257245554966886 8.795814622209768 H 0.0 **** 0.06
26405 H 90.03842777357602 44.99697900944466 8.659255241759347 H 0.0 **** 0.06
26406 C 64.0213285554566 29.535461166860358 93.15188240661104 C 0.0 **** -0.24
26407 H 63.8698204186213 29.134260359541216 94.15448941320108 H 0.0 **** 0.06
26408 H 64.71350447008187 30.376079841180825 93.19864020937064 H 0.0 **** 0.06
26409 H 63.06674168670919 29.87277992352827 92.74778027493005 H 0.0 **** 0.06
26410 H 64.4347821413315 28.759297955395567 92.50895528982443 H 0.0 **** 0.06
26411 C 0.9674168423777303 81.5860086818256 51.1518835825354 C 0.0 **** -0.24
26412 H 1.6124980639987712 82.45458995466814 51.28204237058501 H 0.0 **** 0.06
26413 H 0.31485013049194777 81.74523341518409 50.292874978857206 H 0.0 **** 0.06
26414 H 0.36257373095125445 81.44564057190098 52.047647585319474 H 0.0 **** 0.06
26415 H 1.5798971161098336 80.70056349461828 50.98396620523469 H 0.0 **** 0.06
26416 C 45.501803722719046 77.2438930489899 0.30494819851034727 C 0.0 **** -0.24
26417 H 45.50802606383155 76.16215918053732 0.17133056898405208 H 0.0 **** 0.06
26418 H 46.04441863459698 77.4996551391005 1.2158705065839168 H 0.0 **** 0.06
26419 H 44.47252739246383 77.59398769626863 0.3843745065193289 H 0.0 **** 0.06
26420 H 45.981674386512736 77.71855573475146 -0.5499932872644671 H 0.0 **** 0.06
26421 C 81.62697278178696 22.91262004773145 96.00827180406435 C 0.0 **** -0.24
26422 H 81.80642714850207 23.270495987498208 94.99469671146943 H 0.0 **** 0.06
26423 H 81.51370568830328 21.828594579435787 95.99640156575367 H 0.0 **** 0.06
26424 H 80.71827169682139 23.36940694160907 96.39898597839107 H 0.0 **** 0.06
26425 H 82.47140405167879 23.18346386772464 96.64336321800909 H 0.0 **** 0.06
26426 C 41.72551141782537 93.84859208549443 38.485676540469385 C 0.0 **** -0.24
26427 H 41.03371109666074 94.20155325952089 37.72098819291932 H 0.0 **** 0.06
26428 H 41.30049372629992 94.03273181672535 39.47242629710878 H 0.0 **** 0.06
26429 H 42.67192897929175 94.38204353316621 38.39252636684505 H 0.0 **** 0.06
26430 H 41.896631594111085 92.78015063747159 38.35692766454771 H 0.0 **** 0.06
26431 C 48.60856076743485 14.894189486585674 68.14928701041117 C 0.0 **** -0.24
26432 H 48.832649681101685 13.850083275766536 68.36967072395788 H 0.0 **** 0.06
26433 H 48.27676893551967 15.39445680470709 69.05892118243543 H 0.0 **** 0.06
26434 H 47.82101715645845 14.945700507679106 67.39761739062533 H 0.0 **** 0.06
26435 H 49.50430367983758 15.385277218655688 67.76983609859809 H 0.0 **** 0.06
26436 C 60.48925537831218 88.41358423740087 83.01415668521888 C 0.0 **** -0.24
26437 H 61.40894750577169 87.84987905469484 82.85489758626977 H 0.0 **** 0.06
26438 H 60.406004082260154 88.68219356494888 84.06731138015847 H 0.0 **** 0.06
26439 H 59.63363016011182 87.80268190585582 82.72625846376602 H 0.0 **** 0.06
26440 H 60.50984728546774 89.31967569521629 82.40805781855249 H 0.0 **** 0.06
26441 C 4.611527852876492 8.258145187857309 64.14169844719342 C 0.0 **** -0.24
26442 H 5.140894321532869 9.199672179228969 63.9978910079808 H 0.0 **** 0.06
26443 H 5.3293522148094326 7.439114353787119 64.17719759130065 H 0.0 **** 0.06
26444 H 3.9204726098747074 8.100862314361677 63.312839369188 H 0.0 **** 0.06
26445 H 4.053134576503794 8.294656880261812 65.0771547025688 H 0.0 **** 0.06
26446 C 58.63246928710551 69.69999887471896 48.53163566714264 C 0.0 **** -0.24
26447 H 58.961572693734766 70.72743570430914 48.684916536354706 H 0.0 **** 0.06
26448 H 57.79827751771258 69.68620801751678 47.82921304816253 H 0.0 **** 0.06
26449 H 58.31214765178929 69.27589282022893 49.48430285413076 H 0.0 **** 0.06
26450 H 59.45618308509887 69.1108523375796 48.129513241382256 H 0.0 **** 0.06
26451 C 93.32441319591803 40.722028184083044 60.173472660508764 C 0.0 **** -0.24
26452 H 93.06992750798538 39.75636641431788 59.73576273601364 H 0.0 **** 0.06
26453 H 92.41595504247196 41.30462117167042 60.32262252883018 H 0.0 **** 0.06
26454 H 93.99644906251011 41.25887850027773 59.503191268954765 H 0.0 **** 0.06
26455 H 93.81805528160452 40.56578053353974 61.132980218539615 H 0.0 **** 0.06
26456 C 108.19931543242242 32.42556939054482 81.35738549283548 C 0.0 **** -0.24
26457 H 107.78410219898004 31.587758056122638 80.79689043082249 H 0.0 **** 0.06
26458 H 107.40270531056414 33.125803820548725 81.6067297393374 H 0.0 **** 0.06
26459 H 108.95045541654748 32.931347628093704 80.74975919562922 H 0.0 **** 0.06
26460 H 108.66081487314004 32.056722366829774 82.27285839664376 H 0.0 **** 0.06
26461 C 93.58223136151257 75.58457557910566 38.47261891979932 C 0.0 **** -0.24
26462 H 93.31884505490542 74.92253966799933 39.29799199037551 H 0.0 **** 0.06
26463 H 93.67686105540677 76.60553940444663 38.84188389024833 H 0.0 **** 0.06
26464 H 92.80308456546823 75.54400677041218 37.711724070372945 H 0.0 **** 0.06
26465 H 94.53047548486946 75.26547835906561 38.04003297245812 H 0.0 **** 0.06
26466 C 76.88863428079176 19.42830549829472 31.823557329709423 C 0.0 **** -0.24
26467 H 76.59006261915633 18.857024848895435 30.94452437101056 H 0.0 **** 0.06
26468 H 77.48955337935581 20.283496786995812 31.513575594803143 H 0.0 **** 0.06
26469 H 77.47485396700385 18.79284414686657 32.48773571886185 H 0.0 **** 0.06
26470 H 75.99904985138204 19.778212853133255 32.347269023522756 H 0.0 **** 0.06
26471 C 40.99483293024525 80.49285698546265 28.74984881269033 C 0.0 **** -0.24
26472 H 40.24638040534833 79.93070385618361 29.308768537680066 H 0.0 **** 0.06
26473 H 40.49788718272469 81.23302269711579 28.122731442522507 H 0.0 **** 0.06
26474 H 41.56855271234421 79.81076904681737 28.12299782052027 H 0.0 **** 0.06
26475 H 41.665003146892914 80.99686601685858 29.446546994174128 H 0.0 **** 0.06
26476 C 114.83123058041227 32.88573175361552 81.21084454030927 C 0.0 **** -0.24
26477 H 115.45166318196135 33.59023095780793 80.6562114578123 H 0.0 **** 0.06
26478 H 114.6206604839198 33.28946877707301 82.20176697466022 H 0.0 **** 0.06
26479 H 115.35866057654187 31.93736087036234 81.3096715542954 H 0.0 **** 0.06
26480 H 113.89572276848975 32.72650569471631 80.67636568974953 H 0.0 **** 0.06
26481 C 44.61275714187087 32.549401499081235 0.9914981215757024 C 0.0 **** -0.24
26482 H 44.96237242350509 32.86777849884868 0.008790197708918868 H 0.0 **** 0.06
26483 H 43.5490032818783 32.31500744142846 0.9402949585776383 H 0.0 **** 0.06
26484 H 44.77390074102618 33.35190582945713 1.7112029818843553 H 0.0 **** 0.06
26485 H 45.16597715936666 31.66470992274506 1.3043909108863403 H 0.0 **** 0.06
26486 C 108.98843341557222 105.69871756533428 65.09898989705852 C 0.0 **** -0.24
26487 H 109.92484781358486 106.2410249508635 65.22468895485162 H 0.0 **** 0.06
26488 H 109.19703719031784 104.69599401391315 64.72586323774061 H 0.0 **** 0.06
26489 H 108.35461272421053 106.22797031242845 64.38797135004276 H 0.0 **** 0.06
26490 H 108.47693964332578 105.6294603724487 66.05961218480755 H 0.0 **** 0.06
26491 C 60.10026791425997 24.95635748712425 106.5292033808098 C 0.0 **** -0.24
26492 H 60.112896882033965 25.20276620960925 105.46717049812263 H 0.0 **** 0.06
26493 H 60.26499653958402 25.86116401958261 107.11431719598102 H 0.0 **** 0.06
26494 H 60.888867319295144 24.23587298188518 106.74391144411497 H 0.0 **** 0.06
26495 H 59.133246303982446 24.525292330166216 106.79008964226973 H 0.0 **** 0.06
26496 C 28.016899964540812 62.127979573734194 41.956917689498766 C 0.0 **** -0.24
26497 H 28.222550911752137 61.96544538325858 40.89880338041837 H 0.0 **** 0.06
26498 H 27.67620330134673 63.15276584134581 42.10671915008987 H 0.0 **** 0.06
26499 H 28.926472375725666 61.958497619618825 42.53342394913648 H 0.0 **** 0.06
26500 H 27.243271424265288 61.43550085456755 42.28669728899871 H 0.0 **** 0.06
26501 C 66.56670871956914 17.333230013739335 88.66615817692673 C 0.0 **** -0.24
26502 H 66.5172841883134 17.873653188472698 89.61170806367159 H 0.0 **** 0.06
26503 H 65.7246777944884 17.624808285058876 88.03784326586498 H 0.0 **** 0.06
26504 H 66.52328855723067 16.261150452410224 88.85763310072088 H 0.0 **** 0.06
26505 H 67.5001859866565 17.57415606027316 88.15801906287874 H 0.0 **** 0.06
26506 C 67.15345122828165 61.667983958535444 108.0788925360697 C 0.0 **** -0.24
26507 H 66.7305128976123 61.80915477081801 107.08409077524834 H 0.0 **** 0.06
26508 H 68.2080122797837 61.94530416390164 108.0679333092989 H 0.0 **** 0.06
26509 H 67.05571620158355 60.6228075137131 108.37092261692032 H 0.0 **** 0.06
26510 H 66.62054512001987 62.29608033919537 108.79283761568598 H 0.0 **** 0.06
26511 C 32.10109357186673 5.814302938375306 100.54900785553028 C 0.0 **** -0.24
26512 H 33.08093998199979 5.966702543974236 101.00209940932587 H 0.0 **** 0.06
26513 H 31.64324873787359 4.917984012435824 100.96882104078112 H 0.0 **** 0.06
26514 H 32.21478919003118 5.69448055971867 99.47220825346902 H 0.0 **** 0.06
26515 H 31.46781754788867 6.676528310066033 100.75531922052546 H 0.0 **** 0.06
26516 C 96.5904933110973 77.83718246928578 85.015467845456 C 0.0 **** -0.24
26517 H 96.42205881060352 78.72828524454744 85.61857820648457 H 0.0 **** 0.06
26518 H 97.52580587131416 77.94228737083182 84.46428365020451 H 0.0 **** 0.06
26519 H 95.7655878023387 77.71340816928179 84.31238855225192 H 0.0 **** 0.06
26520 H 96.64810384306351 76.96412978245337 85.66541982802524 H 0.0 **** 0.06
26521 C 95.13758602761663 59.286655218016506 51.548008883690386 C 0.0 **** -0.24
26522 H 95.96716330710922 59.59241520259894 52.186004932887215 H 0.0 **** 0.06
26523 H 95.52780188627662 58.883044496107516 50.61357721897684 H 0.0 **** 0.06
26524 H 94.5051459369846 60.14844928028225 51.33654248097122 H 0.0 **** 0.06
26525 H 94.55088119931986 58.522062259469806 52.05818205343758 H 0.0 **** 0.06
26526 C 59.64325183406456 79.44153848161591 30.497725808532536 C 0.0 **** -0.24
26527 H 60.59124473333249 79.50120020436523 29.962878626813733 H 0.0 **** 0.06
26528 H 58.950749118180184 78.80958400080237 29.941726640841324 H 0.0 **** 0.06
26529 H 59.2204270139508 80.44234763582085 30.599204427189875 H 0.0 **** 0.06
26530 H 59.80986272432553 79.01584376897667 31.486376040140186 H 0.0 **** 0.06
26531 C 67.62799209169361 64.38259060815102 38.11864384293017 C 0.0 **** -0.24
26532 H 68.03743216527172 63.822437895053724 37.27797011271281 H 0.0 **** 0.06
26533 H 67.18559505657599 65.31020312350716 37.75523023949211 H 0.0 **** 0.06
26534 H 68.42588131279216 64.6126909066721 38.824697804494036 H 0.0 **** 0.06
26535 H 66.86436053642889 63.78529180268134 38.6161873101085 H 0.0 **** 0.06
26536 C 87.38015288640048 2.648959250381724 56.85570622992111 C 0.0 **** -0.24
26537 H 86.31456727700174 2.65088473087949 56.628492456490164 H 0.0 **** 0.06
26538 H 87.93885399388557 2.3396020554700403 55.97216801652473 H 0.0 **** 0.06
26539 H 87.57576677100508 1.9516053055647706 57.67148153540569 H 0.0 **** 0.06
26540 H 87.6904209113813 3.650781212704935 57.15114321321221 H 0.0 **** 0.06
26541 C 112.4576553949622 64.4701015291155 16.786081210112314 C 0.0 **** -0.24
26542 H 113.24215075294735 64.77300690338987 16.09213815913259 H 0.0 **** 0.06
26543 H 112.30795868831757 65.25307397646183 17.52911725624918 H 0.0 **** 0.06
26544 H 112.75006932401138 63.54606808299032 17.2840820091063 H 0.0 **** 0.06
26545 H 111.52967078783298 64.30834952315719 16.236089838638463 H 0.0 **** 0.06
26546 C 39.633611966365635 114.88001646628521 57.74715318780352 C 0.0 **** -0.24
26547 H 40.385449790888686 114.41312630512442 57.11035333339538 H 0.0 **** 0.06
26548 H 39.95661836444532 115.88662755083163 58.01119390569693 H 0.0 **** 0.06
26549 H 39.508054575715505 114.28787695040376 58.653465866803685 H 0.0 **** 0.06
26550 H 38.68564665737793 114.92927629740808 57.21209080479963 H 0.0 **** 0.06
26551 C 97.3257345635684 36.389849386595955 84.05905729646491 C 0.0 **** -0.24
26552 H 97.7847154350726 37.0028118142468 84.83398058764308 H 0.0 **** 0.06
26553 H 97.2614862607632 36.96217998498588 83.1331979974754 H 0.0 **** 0.06
26554 H 96.32371100537921 36.09595294253836 84.37369565752545 H 0.0 **** 0.06
26555 H 97.93072148700256 35.49877932506229 83.89459008690329 H 0.0 **** 0.06
26556 C 28.141434356271986 8.550632550004579 89.19392197535268 C 0.0 **** -0.24
26557 H 28.48651986986505 7.5407168851035475 88.9735771054501 H 0.0 **** 0.06
26558 H 27.157899643145015 8.503379876761578 89.66252870548072 H 0.0 **** 0.06
26559 H 28.075366382729555 9.121398024649565 88.26813404074714 H 0.0 **** 0.06
26560 H 28.844920477506093 9.034940451298112 89.87070750491363 H 0.0 **** 0.06
26561 C 57.372695283639516 94.39635413132666 63.55693953776438 C 0.0 **** -0.24
26562 H 57.90009736648548 94.30368942954044 64.50616913677986 H 0.0 **** 0.06
26563 H 57.82674870236593 93.73001453995215 62.822874385023894 H 0.0 **** 0.06
26564 H 57.43926945105264 95.42520056840107 63.20383414696178 H 0.0 **** 0.06
26565 H 56.326025330495 94.1268987398825 63.69483914123077 H 0.0 **** 0.06
26566 C 43.08541343434629 32.47418020426221 52.59595631115576 C 0.0 **** -0.24
26567 H 42.32518017606208 31.89711477865167 53.12172184929511 H 0.0 **** 0.06
26568 H 42.749639324626884 32.67532516331198 51.57839941517352 H 0.0 **** 0.06
26569 H 44.01560078064932 31.907247483269778 52.56676194037675 H 0.0 **** 0.06
26570 H 43.25066360816433 33.41750215805034 53.11814854105461 H 0.0 **** 0.06
26571 C 67.92517137758702 21.80071578549621 87.51438433700457 C 0.0 **** -0.24
26572 H 67.58997272899143 20.813805247434743 87.83280385501018 H 0.0 **** 0.06
26573 H 68.90090705530005 21.71488720950947 87.03587632909807 H 0.0 **** 0.06
26574 H 68.00140022047754 22.455651217405375 88.38281415238572 H 0.0 **** 0.06
26575 H 67.20818772172709 22.217395226531437 86.8079636719433 H 0.0 **** 0.06
26576 C 18.98726223582885 9.905051032384677 73.30583425158358 C 0.0 **** -0.24
26577 H 18.563370125833533 8.900808812394814 73.29235790454086 H 0.0 **** 0.06
26578 H 18.183941732876054 10.639141107336798 73.2515532065874 H 0.0 **** 0.06
26579 H 19.65253941255637 10.029350324002564 72.45160682388607 H 0.0 **** 0.06
26580 H 19.54966329011608 10.049038933626093 74.22896162875657 H 0.0 **** 0.06
26581 C 100.32389917099508 99.17573167348498 19.140021144003512 C 0.0 **** -0.24
26582 H 100.35536212972964 98.46078684814962 19.96282889345838 H 0.0 **** 0.06
26583 H 100.13962303592383 98.64543683010739 18.206242699741566 H 0.0 **** 0.06
26584 H 101.27780683949817 99.70064609605238 19.07842058036013 H 0.0 **** 0.06
26585 H 99.52441464955471 99.8950539721868 19.31469062684208 H 0.0 **** 0.06
26586 C 19.059112464655783 41.13631193605778 31.58935185206647 C 0.0 **** -0.24
26587 H 19.29056456178742 41.54155024254036 32.574723575015014 H 0.0 **** 0.06
26588 H 18.27229597361955 41.732801402041304 31.12781889701904 H 0.0 **** 0.06
26589 H 18.721586519444628 40.10445542931001 31.69090473946281 H 0.0 **** 0.06
26590 H 19.95209066903385 41.166414490859864 30.965689868679164 H 0.0 **** 0.06
26591 C 60.47261713630806 30.64252829617095 31.47502131548123 C 0.0 **** -0.24
26592 H 61.525452231543056 30.39357342223488 31.341154584035962 H 0.0 **** 0.06
26593 H 59.87339851180877 30.081414898658863 30.756455750423243 H 0.0 **** 0.06
26594 H 60.32886956498356 31.710317769961975 31.31345472390109 H 0.0 **** 0.06
26595 H 60.163071820182324 30.38317969959212 32.48721819828398 H 0.0 **** 0.06
26596 C 112.06806356170937 96.17645617906248 93.48453647894956 C 0.0 **** -0.24
26597 H 112.96653375046091 96.75503987668995 93.70185845984113 H 0.0 **** 0.06
26598 H 111.19373910941539 96.71115737573973 93.85564284455336 H 0.0 **** 0.06
26599 H 112.1354064565323 95.20437419963065 93.97281519247872 H 0.0 **** 0.06
26600 H 111.97900170899126 96.03693843538497 92.40730840490204 H 0.0 **** 0.06
26601 C 84.40567840927523 62.60681996030354 112.7567313722095 C 0.0 **** -0.24
26602 H 85.04746435668827 63.36970326942112 112.31826552805887 H 0.0 **** 0.06
26603 H 84.59947594724844 62.54044525936385 113.82750095091563 H 0.0 **** 0.06
26604 H 84.61358881574446 61.64383899376003 112.28995252268338 H 0.0 **** 0.06
26605 H 83.36137707395233 62.87213516063153 112.59111091497361 H 0.0 **** 0.06
26606 C 32.56057380149247 60.509851928328715 114.61687425647588 C 0.0 **** -0.24
26607 H 31.594163270385508 60.36229011750612 115.09821998724789 H 0.0 **** 0.06
26608 H 32.99591072236716 59.540966664739216 114.37158323796316 H 0.0 **** 0.06
26609 H 33.22526079855041 61.04588366994301 115.2943391793836 H 0.0 **** 0.06
26610 H 32.42723219262649 61.09101018502594 113.70452693293275 H 0.0 **** 0.06
26611 C 68.64213636773155 110.37008404308692 5.33813694564293 C 0.0 **** -0.24
26612 H 69.09046506536754 109.38937389653101 5.500148039933549 H 0.0 **** 0.06
26613 H 68.3935546213711 110.81850368783766 6.299988019154796 H 0.0 **** 0.06
26614 H 67.73678943145052 110.261241005641 4.742394068194017 H 0.0 **** 0.06
26615 H 69.34995132178818 111.00988223185371 4.811162734361517 H 0.0 **** 0.06
26616 C 32.078427573274666 91.14063550962749 87.7793580139435 C 0.0 **** -0.24
26617 H 32.469004684551294 91.15902535202275 86.76220175581034 H 0.0 **** 0.06
26618 H 31.5747602338449 90.19065186104308 87.95808918719132 H 0.0 **** 0.06
26619 H 31.369616021004674 91.9587007059489 87.91087272687676 H 0.0 **** 0.06
26620 H 32.90134839247267 91.25518319515191 88.48530754492714 H 0.0 **** 0.06
26621 C 85.4905771820804 55.24270340093612 32.56878070130887 C 0.0 **** -0.24
26622 H 84.86725584518035 56.08620660642991 32.27193324913174 H 0.0 **** 0.06
26623 H 84.8551617276359 54.39214922961974 32.817855831244614 H 0.0 **** 0.06
26624 H 86.0853527773567 55.51958322555024 33.43900945645452 H 0.0 **** 0.06
26625 H 86.1537119033505 54.973408790609156 31.746501961535408 H 0.0 **** 0.06
26626 C 96.82443876361977 50.396406630018475 108.56851487737211 C 0.0 **** -0.24
26627 H 97.31492953014609 51.32511234893798 108.27843730226735 H 0.0 **** 0.06
26628 H 96.42416835799523 50.49707996967862 109.57707077716704 H 0.0 **** 0.06
26629 H 97.547035550249 49.581130652141226 108.54433889034607 H 0.0 **** 0.06
26630 H 96.01162161608842 50.182303549316174 107.87421253970784 H 0.0 **** 0.06
26631 C 20.967554557874735 77.43582630788347 79.10211429644909 C 0.0 **** -0.24
26632 H 20.670029997147026 76.760827453829 78.29983677629077 H 0.0 **** 0.06
26633 H 21.920204134409005 77.9011120772607 78.85046881384564 H 0.0 **** 0.06
26634 H 21.07171358689635 76.87353996786675 80.02964029506776 H 0.0 **** 0.06
26635 H 20.20726505898986 78.20683276669945 79.22856782163961 H 0.0 **** 0.06
26636 C 28.89251478607389 20.164973599123044 106.67393086387071 C 0.0 **** -0.24
26637 H 29.024295891262142 19.41715593074821 105.89100039876857 H 0.0 **** 0.06
26638 H 29.160074430972372 19.732632059402476 107.63754703460773 H 0.0 **** 0.06
26639 H 27.850935086811575 20.48718605022887 106.6962799904269 H 0.0 **** 0.06
26640 H 29.53369788528667 21.02279622404572 106.4680906290626 H 0.0 **** 0.06
26641 C 33.44750869093801 92.14212364572637 96.72044227672285 C 0.0 **** -0.24
26642 H 33.20274379060231 92.62308693589011 97.66681690687037 H 0.0 **** 0.06
26643 H 32.895632501889295 91.20571227388308 96.6356366252984 H 0.0 **** 0.06
26644 H 34.51715333526299 91.93775069538987 96.68248778694003 H 0.0 **** 0.06
26645 H 33.17427211576114 92.8011817443238 95.89565999161334 H 0.0 **** 0.06
26646 C 32.05853395961273 48.55837320928302 43.58206211515903 C 0.0 **** -0.24
26647 H 31.360725381836048 48.68384007534917 44.4105757637617 H 0.0 **** 0.06
26648 H 32.959483488763595 48.059290706631344 43.93985003498932 H 0.0 **** 0.06
26649 H 32.32060635725646 49.534976372637544 43.17623232478803 H 0.0 **** 0.06
26650 H 31.59352366119287 47.9533458982329 42.80438295824672 H 0.0 **** 0.06
26651 C 2.96720312440641 46.75825425733993 53.24941619526783 C 0.0 **** -0.24
26652 H 2.330808386747094 47.57287602340168 53.5942388113329 H 0.0 **** 0.06
26653 H 2.347276684872952 45.901934373595985 52.98264839802067 H 0.0 **** 0.06
26654 H 3.656837627577943 46.473764001682234 54.04343070226059 H 0.0 **** 0.06
26655 H 3.5325125940382236 47.0841748078845 52.376331118697294 H 0.0 **** 0.06
26656 C 43.206075317060595 56.406405339067945 20.344231869031354 C 0.0 **** -0.24
26657 H 43.13277411400385 56.387309836996536 21.432064534140594 H 0.0 **** 0.06
26658 H 44.07061745392086 57.00152257495813 20.048705270356805 H 0.0 **** 0.06
26659 H 42.300426018850146 56.84734460114355 19.927322419366394 H 0.0 **** 0.06
26660 H 43.320559874183886 55.38940666903071 19.969831661912036 H 0.0 **** 0.06
26661 C 77.39043265095586 28.093124216280046 65.01008260685575 C 0.0 **** -0.24
26662 H 77.19613769052336 27.718882870871788 66.015976500215 H 0.0 **** 0.06
26663 H 76.44552054461809 28.35231758723068 64.53183215001424 H 0.0 **** 0.06
26664 H 77.89355405645728 27.32267074618604 64.42705878822846 H 0.0 **** 0.06
26665 H 78.02394460646548 28.978116613150164 65.06813089173552 H 0.0 **** 0.06
26666 C 114.93571020225124 99.92210213871522 24.726064901127017 C 0.0 **** -0.24
26667 H 114.7295906240418 99.32952624180092 25.617634923183175 H 0.0 **** 0.06
26668 H 114.18034990143883 100.70230419620864 24.62553533926109 H 0.0 **** 0.06
26669 H 114.9112842695547 99.27704016314107 23.84750983645887 H 0.0 **** 0.06
26670 H 115.92159455836037 100.37885063406245 24.814305582887812 H 0.0 **** 0.06
26671 C 107.93907961901732 40.5769881086088 19.660683186966025 C 0.0 **** -0.24
26672 H 108.01945058536609 39.876712781441185 20.491194139485685 H 0.0 **** 0.06
26673 H 107.8454359335677 40.02427996421526 18.726190763797433 H 0.0 **** 0.06
26674 H 108.83171894669283 41.201861945591396 19.625750468071203 H 0.0 **** 0.06
26675 H 107.06043869396792 41.20693919552331 19.80063791532507 H 0.0 **** 0.06
26676 C 38.590595098824025 61.6549790069638 98.86146620059591 C 0.0 **** -0.24
26677 H 38.76091350536651 60.622900944042826 99.1676492461865 H 0.0 **** 0.06
26678 H 38.66948936232357 61.72973480930895 97.77623355216718 H 0.0 **** 0.06
26679 H 39.335842793097456 62.29991697313346 99.3262515339926 H 0.0 **** 0.06
26680 H 37.59401088912758 61.96666362635945 99.17572599932919 H 0.0 **** 0.06
26681 C 26.57702355544228 4.87147312004447 17.501300192121843 C 0.0 **** -0.24
26682 H 26.330809091607946 4.058938894075823 16.818893397644064 H 0.0 **** 0.06
26683 H 25.77497021112336 4.990942060149166 18.229685501991163 H 0.0 **** 0.06
26684 H 26.69617833975576 5.796400649413329 16.93745559572156 H 0.0 **** 0.06
26685 H 27.50824089127331 4.639972255487407 18.020366946887766 H 0.0 **** 0.06
26686 C 114.18430674243399 115.00392598473661 93.40818818529306 C 0.0 **** -0.24
26687 H 113.85924601336433 115.82226865231274 92.76591772729842 H 0.0 **** 0.06
26688 H 115.24506291729398 114.8136481079656 93.24393460846005 H 0.0 **** 0.06
26689 H 113.61345662940607 114.10654642171426 93.17014279737884 H 0.0 **** 0.06
26690 H 114.02039098908534 115.27359783869741 94.45175337277072 H 0.0 **** 0.06
26691 C 59.101388417316514 91.18994166632018 96.8039383047884 C 0.0 **** -0.24
26692 H 59.85949109352026 91.81927005645767 97.27017286640705 H 0.0 **** 0.06
26693 H 59.47167590407622 90.16717867088954 96.73265300341066 H 0.0 **** 0.06
26694 H 58.88105692703783 91.56785547364154 95.80449402666682 H 0.0 **** 0.06
26695 H 58.193727938265056 91.20810978683875 97.40674996477946 H 0.0 **** 0.06
26696 C 90.92058114187245 6.6698380414363125 2.7579785726508135 C 0.0 **** -0.24
26697 H 90.62344492944845 6.324395110122223 1.7672284177780568 H 0.0 **** 0.06
26698 H 90.38527938978416 6.097830910505005 3.5161351893668495 H 0.0 **** 0.06
26699 H 90.67863539782368 7.727163700241032 2.860536845075842 H 0.0 **** 0.06
26700 H 91.99306602846366 6.527528763818701 2.8852802257015355 H 0.0 **** 0.06
26701 C 87.73341584128605 3.5079374996755597 52.87914241131971 C 0.0 **** -0.24
26702 H 87.50996982242782 4.087892889389291 53.774433515267546 H 0.0 **** 0.06
26703 H 88.47388609509946 4.036746966786305 52.27913166467765 H 0.0 **** 0.06
26704 H 86.82196629628189 3.373369700038495 52.29751045391921 H 0.0 **** 0.06
26705 H 88.12744505647848 2.5333380988069774 53.16679067719665 H 0.0 **** 0.06
26706 C 36.92206751781998 2.2490015590920365 68.59209659088353 C 0.0 **** -0.24
26707 H 36.66861349349318 1.2868553700081815 68.14857405320214 H 0.0 **** 0.06
26708 H 37.202726996945955 2.949057567789266 67.80555710623547 H 0.0 **** 0.06
26709 H 37.756840106969605 2.1229700699151195 69.28211063761876 H 0.0 **** 0.06
26710 H 36.05942565901131 2.637822104100607 69.13416228976239 H 0.0 **** 0.06
26711 C 73.0773661438784 24.4320407772758 67.56114355866191 C 0.0 **** -0.24
26712 H 73.69623300101387 23.729795369681227 67.00271115588401 H 0.0 **** 0.06
26713 H 73.67022862486984 24.88646604820002 68.35560209478285 H 0.0 **** 0.06
26714 H 72.23012148392593 23.903921898731113 67.9964370033938 H 0.0 **** 0.06
26715 H 72.71371001404484 25.210043020448353 66.88879590509657 H 0.0 **** 0.06
26716 C 67.60642007547739 112.59242756661902 93.2802880917682 C 0.0 **** -0.24
26717 H 67.5695049891367 113.52139828323806 92.71227121254753 H 0.0 **** 0.06
26718 H 67.58712049628286 112.81728758659608 94.34687848981602 H 0.0 **** 0.06
26719 H 68.52411266442772 112.0557611566185 93.03716035222567 H 0.0 **** 0.06
26720 H 66.74574906574426 111.97421789667192 93.02277918651541 H 0.0 **** 0.06
26721 C 3.7303396876454116 81.00214847043245 63.65824681371117 C 0.0 **** -0.24
26722 H 3.902150307245506 82.02735723915615 63.985645082286396 H 0.0 **** 0.06
26723 H 4.066201477068333 80.88884056133887 62.62698943124133 H 0.0 **** 0.06
26724 H 2.6668674238085828 80.77341795714115 63.72152085677618 H 0.0 **** 0.06
26725 H 4.287918876877129 80.31764609736884 64.29858702101905 H 0.0 **** 0.06
26726 C 27.87519170686363 112.15142368921818 100.69943961266364 C 0.0 **** -0.24
26727 H 27.25122426197842 111.56361389658656 100.0253017197744 H 0.0 **** 0.06
26728 H 28.91712807335503 112.07953298074835 100.38447612854043 H 0.0 **** 0.06
26729 H 27.774499494178713 111.7673619330975 101.71502774495576 H 0.0 **** 0.06
26730 H 27.557675814257152 113.19413941500972 100.67203216370268 H 0.0 **** 0.06
26731 C 10.554337317598922 4.38133334934183 81.86828614989611 C 0.0 **** -0.24
26732 H 10.287569199188852 3.732326817243205 82.70245331090666 H 0.0 **** 0.06
26733 H 11.031986844126706 5.283954091488397 82.24851797740979 H 0.0 **** 0.06
26734 H 9.653125775372445 4.651832432867451 81.31681118742836 H 0.0 **** 0.06
26735 H 11.241949649690994 3.8565437680191934 81.2057579040507 H 0.0 **** 0.06
26736 C 103.51699349012775 47.46358855451126 87.48438562447666 C 0.0 **** -0.24
26737 H 103.42398362514977 46.62547278886743 86.79311597355002 H 0.0 **** 0.06
26738 H 103.66743462660888 48.384102213171616 86.91990829826614 H 0.0 **** 0.06
26739 H 104.36861792016602 47.29708537582769 88.14322249057773 H 0.0 **** 0.06
26740 H 102.60667853619466 47.54593517302959 88.0787813769947 H 0.0 **** 0.06
26741 C 51.20526771310483 48.8256450663411 92.26388923564119 C 0.0 **** -0.24
26742 H 50.198235156468 49.163641414755126 92.5066986414399 H 0.0 **** 0.06
26743 H 51.809413413141954 49.6788557642093 91.95247128999206 H 0.0 **** 0.06
26744 H 51.15841747276406 48.09791352874282 91.453020265837 H 0.0 **** 0.06
26745 H 51.654966437298356 48.363419849468656 93.14270688800609 H 0.0 **** 0.06
26746 C 83.91226104287591 104.01599733923958 87.16118643188545 C 0.0 **** -0.24
26747 H 84.64738169860841 104.75341412346874 86.83880829582552 H 0.0 **** 0.06
26748 H 82.91035352999289 104.37329729654591 86.92291843391868 H 0.0 **** 0.06
26749 H 83.99773563251676 103.86368286290988 88.23656770541248 H 0.0 **** 0.06
26750 H 84.09400145569997 103.07307604336705 86.64520734203234 H 0.0 **** 0.06
26751 C 8.384818239621126 93.72787063532746 11.786497320225948 C 0.0 **** -0.24
26752 H 8.607825889773228 94.74323401652373 11.459301161433828 H 0.0 **** 0.06
26753 H 8.174072533350596 93.72848052486722 12.855687387439843 H 0.0 **** 0.06
26754 H 9.24218359223186 93.08519410090236 11.584692662354243 H 0.0 **** 0.06
26755 H 7.516201708215034 93.35449221219261 11.244078266461287 H 0.0 **** 0.06
26756 C 75.72469242600408 51.132859911298965 78.27574101473454 C 0.0 **** -0.24
26757 H 76.22154177382032 50.221909664273994 78.60738818604375 H 0.0 **** 0.06
26758 H 75.3862152482086 51.69979676719697 79.14384091668563 H 0.0 **** 0.06
26759 H 74.86707454593102 50.87303764836801 77.6547896916129 H 0.0 **** 0.06
26760 H 76.42272043965369 51.737388876054354 77.69675382407922 H 0.0 **** 0.06
26761 C 25.056120514114696 2.1643035571155735 29.665194853249403 C 0.0 **** -0.24
26762 H 26.015742543638623 2.5531922479884486 30.006033100458893 H 0.0 **** 0.06
26763 H 25.055319878317846 2.1036867354915785 28.57591865632918 H 0.0 **** 0.06
26764 H 24.25772481093503 2.830205769435622 29.992023668984245 H 0.0 **** 0.06
26765 H 24.8963169862472 1.1712226663013041 30.08495516817402 H 0.0 **** 0.06
26766 C 109.01706044999109 29.447637430527216 30.076482816036417 C 0.0 **** -0.24
26767 H 109.33508225461144 29.1996641996587 31.088611217894197 H 0.0 **** 0.06
26768 H 109.5662781297849 28.834547135509418 29.362223926853915 H 0.0 **** 0.06
26769 H 109.21625212960987 30.501512377996264 29.880381151496465 H 0.0 **** 0.06
26770 H 107.94864605194591 29.256048980884103 29.97395901574663 H 0.0 **** 0.06
26771 C 67.74887280921388 6.20383257284621 71.22860544070011 C 0.0 **** -0.24
26772 H 68.38404863583077 5.707858750693646 70.49417829520769 H 0.0 **** 0.06
26773 H 68.3519216150907 6.5123424387147395 72.08216698818552 H 0.0 **** 0.06
26774 H 66.97366764697045 5.513358242791725 71.56194423302753 H 0.0 **** 0.06
26775 H 67.28513695924894 7.079062162863522 70.77505973712437 H 0.0 **** 0.06
26776 C 58.56263043272605 18.726255738185216 45.47320275540994 C 0.0 **** -0.24
26777 H 57.48915354638041 18.61547147918091 45.316196885055945 H 0.0 **** 0.06
26778 H 58.75029219515574 19.60400232904655 46.0921951458086 H 0.0 **** 0.06
26779 H 59.058704942675604 18.848251516508412 44.510415315154376 H 0.0 **** 0.06
26780 H 58.95078293170073 17.838357651506072 45.9728398348833 H 0.0 **** 0.06
26781 C 13.644637551118961 88.75362167717913 19.998486099364584 C 0.0 **** -0.24
26782 H 12.699221528565658 89.11207249528027 20.404226216180263 H 0.0 **** 0.06
26783 H 14.398980435081455 88.7515905012113 20.785915015228966 H 0.0 **** 0.06
26784 H 13.965128161651165 89.40943606817123 19.189621618462695 H 0.0 **** 0.06
26785 H 13.515567208201901 87.74122208873172 19.616600728036275 H 0.0 **** 0.06
26786 C 21.70425736262402 0.8128229970758412 70.71006297012553 C 0.0 **** -0.24
26787 H 22.634862883571785 1.1167899017776222 70.22987332982858 H 0.0 **** 0.06
26788 H 21.007944490086956 0.4503497509193153 69.95425740774645 H 0.0 **** 0.06
26789 H 21.26703757328147 1.6665071752178164 71.22781071577883 H 0.0 **** 0.06
26790 H 21.90960417988458 0.01830289854530065 71.42700161017238 H 0.0 **** 0.06
26791 C 1.5523300304378296 49.35756651489376 68.51351979741149 C 0.0 **** -0.24
26792 H 1.7671045218879442 49.96106447470203 69.39565000695026 H 0.0 **** 0.06
26793 H 2.261211064231645 49.603782216971695 67.72314580596266 H 0.0 **** 0.06
26794 H 0.5383906289037128 49.56464680152945 68.17140403758512 H 0.0 **** 0.06
26795 H 1.641529116105616 48.30070233739821 68.76649061318432 H 0.0 **** 0.06
26796 C 15.882092381642963 111.11445857252443 88.42207733999577 C 0.0 **** -0.24
26797 H 16.522777595584216 110.3345966281627 88.83279660647631 H 0.0 **** 0.06
26798 H 14.86835454926296 110.72937647483259 88.31065941333419 H 0.0 **** 0.06
26799 H 16.263622515816564 111.42120442140634 87.44813776203169 H 0.0 **** 0.06
26800 H 15.873297656323302 111.97048245529437 89.09630080511016 H 0.0 **** 0.06
26801 C 39.44793393836996 46.80449270766496 20.3285943562191 C 0.0 **** -0.24
26802 H 39.93390165070518 46.927353112151195 21.296357882065337 H 0.0 **** 0.06
26803 H 38.93083859031677 47.72705689078376 20.062621897817223 H 0.0 **** 0.06
26804 H 38.728704470709886 45.98802944413393 20.38394958855659 H 0.0 **** 0.06
26805 H 40.19807978147048 46.577250350274824 19.57147438554631 H 0.0 **** 0.06
26806 C 45.70583414569505 113.20812438467976 60.47368917590342 C 0.0 **** -0.24
26807 H 46.614712641472664 113.59302621697333 60.011563657664624 H 0.0 **** 0.06
26808 H 45.92037293761541 112.9012239796688 61.49714204620744 H 0.0 **** 0.06
26809 H 45.345169348830666 112.35017603091103 59.90535464347778 H 0.0 **** 0.06
26810 H 44.94243040845649 113.98573208815779 60.4789344182401 H 0.0 **** 0.06
26811 C 14.495791610037571 86.78780068783955 15.270152463182015 C 0.0 **** -0.24
26812 H 15.511104818740108 87.0740826716394 14.99391465569137 H 0.0 **** 0.06
26813 H 14.197599053116093 85.91017057494803 14.69688540480584 H 0.0 **** 0.06
26814 H 13.815174873022102 87.61136068956738 15.05423966754185 H 0.0 **** 0.06
26815 H 14.460960214569809 86.5561649463232 16.333875694606704 H 0.0 **** 0.06
26816 C 71.34274659577233 56.00762493822327 47.864925817956646 C 0.0 **** -0.24
26817 H 71.98767257264902 55.80999720567644 48.721121657266735 H 0.0 **** 0.06
26818 H 70.67618986808053 56.83876257515675 48.09666263082477 H 0.0 **** 0.06
26819 H 70.75128203449512 55.11879609888064 47.642901989689335 H 0.0 **** 0.06
26820 H 71.95418868947256 56.261803517232494 47.000000224218525 H 0.0 **** 0.06
26821 C 62.45489034644038 110.49841301510241 56.23418615482208 C 0.0 **** -0.24
26822 H 62.227197186223634 110.64506360003818 55.17838788693604 H 0.0 **** 0.06
26823 H 62.85658529622512 111.42241300622655 56.65102759076025 H 0.0 **** 0.06
26824 H 63.19249078289408 109.70181634730739 56.339152751756515 H 0.0 **** 0.06
26825 H 61.54539490105705 110.22430740168468 56.76692773332137 H 0.0 **** 0.06
26826 C 31.781038695775763 93.70897450201191 109.3429992112288 C 0.0 **** -0.24
26827 H 32.19895189113818 94.71509718086382 109.34050836791887 H 0.0 **** 0.06
26828 H 30.779533339630973 93.7324649985363 109.77399090658132 H 0.0 **** 0.06
26829 H 32.41783390405996 93.05316004868983 109.93709334940284 H 0.0 **** 0.06
26830 H 31.727835648273896 93.33517577995788 108.32040422101223 H 0.0 **** 0.06
26831 C 61.185266083811186 24.679026082892833 44.22182757276312 C 0.0 **** -0.24
26832 H 62.20999922161921 25.02774624027873 44.35621468357857 H 0.0 **** 0.06
26833 H 61.070405312838005 24.267512782675823 43.219500126441005 H 0.0 **** 0.06
26834 H 60.49716592234945 25.514164441867536 44.35404958824927 H 0.0 **** 0.06
26835 H 60.96586412725509 23.906674991807975 44.959639324093985 H 0.0 **** 0.06
26836 C 51.6468763238104 59.5319000193405 35.11761830334001 C 0.0 **** -0.24
26837 H 51.059920815043256 58.841968579742996 35.72380258772415 H 0.0 **** 0.06
26838 H 52.23478836215551 60.17843933333748 35.76942420053291 H 0.0 **** 0.06
26839 H 50.97702944578111 60.141067144981776 34.50999574178013 H 0.0 **** 0.06
26840 H 52.31472222066532 58.967071363395235 34.46736759115197 H 0.0 **** 0.06
26841 C 97.81752766927667 57.214598920552135 93.17420181104765 C 0.0 **** -0.24
26842 H 98.66101433723387 56.8199460137007 93.74041278048009 H 0.0 **** 0.06
26843 H 97.7124003869033 58.2806562963973 93.37723510142239 H 0.0 **** 0.06
26844 H 96.90568241256788 56.6963148117386 93.47085879063067 H 0.0 **** 0.06
26845 H 97.99225612743624 57.062360814903684 92.10912384256528 H 0.0 **** 0.06
26846 C 88.38597434113758 98.40954986889648 47.57660045938158 C 0.0 **** -0.24
26847 H 89.26087849326721 97.76394585627463 47.497109800897846 H 0.0 **** 0.06
26848 H 88.70512186415651 99.42922761831622 47.79139263577534 H 0.0 **** 0.06
26849 H 87.7422411085082 98.05221536799053 48.3797922685678 H 0.0 **** 0.06
26850 H 87.83583917702951 98.39147564387343 46.63476274112267 H 0.0 **** 0.06
26851 C 7.556081144658364 28.392049622556442 43.997150065208075 C 0.0 **** -0.24
26852 H 8.131783870489784 28.829981162387355 44.81247998927978 H 0.0 **** 0.06
26853 H 7.130842694673007 29.186842549459925 43.385021836643546 H 0.0 **** 0.06
26854 H 6.753764909749478 27.779459334504622 44.40859308857017 H 0.0 **** 0.06
26855 H 8.209404361963209 27.770480015600867 43.38469062815557 H 0.0 **** 0.06
26856 C 48.43393902305775 38.8351292687953 54.271703629624405 C 0.0 **** -0.24
26857 H 47.671079778970125 38.270561429891245 54.80862963294609 H 0.0 **** 0.06
26858 H 49.41182987371599 38.390354697972214 54.458742863418074 H 0.0 **** 0.06
26859 H 48.43233614461792 39.86840720423902 54.61730836992426 H 0.0 **** 0.06
26860 H 48.22047465019273 38.8087358009891 53.203532832338524 H 0.0 **** 0.06
26861 C 112.63041271908166 37.16476337698134 73.65815114309726 C 0.0 **** -0.24
26862 H 111.86287588668611 36.404501439639716 73.51238569371264 H 0.0 **** 0.06
26863 H 112.17654160330878 38.06343213110583 74.07574428034548 H 0.0 **** 0.06
26864 H 113.09382505102562 37.40168712037314 72.70055378945614 H 0.0 **** 0.06
26865 H 113.38907484959233 36.787567758617286 74.34495888448293 H 0.0 **** 0.06
26866 C 98.12041944925672 1.0194298809967677 70.93471444000775 C 0.0 **** -0.24
26867 H 98.33585770918647 0.34790700539024044 70.10280578322713 H 0.0 **** 0.06
26868 H 99.04450400653238 1.4910735038003224 71.26845319834295 H 0.0 **** 0.06
26869 H 97.68467054256807 0.45041735592732834 71.75583390674434 H 0.0 **** 0.06
26870 H 97.41683083522781 1.7856119626748495 70.60986123382325 H 0.0 **** 0.06
26871 C 41.58699240830231 67.11226189902226 19.310362128472065 C 0.0 **** -0.24
26872 H 42.31759417275981 67.00477212813925 18.508024530851117 H 0.0 **** 0.06
26873 H 42.073566585828445 67.53996357335114 20.18734185457606 H 0.0 **** 0.06
26874 H 41.177549567375735 66.13458855538317 19.56184944325227 H 0.0 **** 0.06
26875 H 40.78259131828017 67.77033306134132 18.982643113736742 H 0.0 **** 0.06
26876 C 105.33086032647617 59.93513756721748 6.33120642447442 C 0.0 **** -0.24
26877 H 106.30153548275048 60.43025972759523 6.3617408641031545 H 0.0 **** 0.06
26878 H 104.60638087241098 60.58746891989776 5.842578814314139 H 0.0 **** 0.06
26879 H 104.99982513125197 59.72156281708881 7.347230068710132 H 0.0 **** 0.06
26880 H 105.41533885464649 59.00320149453228 5.772966295407821 H 0.0 **** 0.06
26881 C 25.0506464933531 42.01731970178854 72.06695699565518 C 0.0 **** -0.24
26882 H 24.531662551690488 41.08705360182614 72.30238920056586 H 0.0 **** 0.06
26883 H 24.37823603879309 42.86019237267445 72.23164605362362 H 0.0 **** 0.06
26884 H 25.365394423153134 42.00187649243114 71.02328663213467 H 0.0 **** 0.06
26885 H 25.925295996509988 42.1181634103819 72.70948586096883 H 0.0 **** 0.06
26886 C 8.54603437806091 63.728585472326614 82.93358292266359 C 0.0 **** -0.24
26887 H 9.468294709751945 64.3083425700957 82.893768959169 H 0.0 **** 0.06
26888 H 8.353826409224837 63.28417165366642 81.9564048027097 H 0.0 **** 0.06
26889 H 7.717436384869288 64.38286170330832 83.20461158115478 H 0.0 **** 0.06
26890 H 8.644519204647267 62.938948412944825 83.67813351052797 H 0.0 **** 0.06
26891 C 31.513021673702724 53.93933362141688 34.06349853887117 C 0.0 **** -0.24
26892 H 30.517458547116746 54.116099606994815 34.46996670904778 H 0.0 **** 0.06
26893 H 31.497045741827264 53.046262433935695 33.43855918690893 H 0.0 **** 0.06
26894 H 32.21924536049073 53.799392160212236 34.881515048949126 H 0.0 **** 0.06
26895 H 31.81741747153518 54.797832200206535 33.46424234875718 H 0.0 **** 0.06
26896 C 62.38828799466364 74.15664206453442 37.43235683951275 C 0.0 **** -0.24
26897 H 61.76317283304502 73.26502740178253 37.38772656662985 H 0.0 **** 0.06
26898 H 61.77706758304714 75.01560335871346 37.70822750474974 H 0.0 **** 0.06
26899 H 62.84237390296329 74.33137670637177 36.45650726172188 H 0.0 **** 0.06
26900 H 63.171792141320964 74.01392260767244 38.17682778230167 H 0.0 **** 0.06
26901 C 58.03239430105191 58.09627403597317 25.862039077736142 C 0.0 **** -0.24
26902 H 58.522016809764864 57.774372579153194 26.781455652464928 H 0.0 **** 0.06
26903 H 57.64211685664077 59.1061432117891 25.992562562230177 H 0.0 **** 0.06
26904 H 57.21272675662574 57.41647986260017 25.63054712983032 H 0.0 **** 0.06
26905 H 58.753964777570445 58.08917996835096 25.045100110732164 H 0.0 **** 0.06
26906 C 64.08047013493288 113.07576789885374 25.53705285944197 C 0.0 **** -0.24
26907 H 64.59403889379763 113.98468394793048 25.850120404613307 H 0.0 **** 0.06
26908 H 63.332479366868796 112.80595466530445 26.283376684240913 H 0.0 **** 0.06
26909 H 64.80374011324176 112.26576827044394 25.437771693497453 H 0.0 **** 0.06
26910 H 63.59249103989305 113.24649935278711 24.577409314961116 H 0.0 **** 0.06
26911 C 58.36903963722534 77.35494790388073 50.42012623681495 C 0.0 **** -0.24
26912 H 58.44661207354409 77.25876040062451 49.33734693729102 H 0.0 **** 0.06
26913 H 57.8223195818922 76.50160518192288 50.82219709046572 H 0.0 **** 0.06
26914 H 57.83917522364868 78.27545771792681 50.665949269789934 H 0.0 **** 0.06
26915 H 59.36881635335385 77.38410515455635 50.854381895079314 H 0.0 **** 0.06
26916 C 11.678587207821067 39.85412003126555 71.03573274337346 C 0.0 **** -0.24
26917 H 12.01527184558688 38.8170652612302 71.05726135236573 H 0.0 **** 0.06
26918 H 10.613342842023584 39.89431642754204 71.2646744024538 H 0.0 **** 0.06
26919 H 11.853405283200729 40.27126594244302 70.04422103960762 H 0.0 **** 0.06
26920 H 12.231911688421022 40.431250902161736 71.77530385134473 H 0.0 **** 0.06
26921 C 76.13028359917968 32.045925424904 66.15394266364109 C 0.0 **** -0.24
26922 H 76.57391026916878 32.67799455033908 66.92193383554263 H 0.0 **** 0.06
26923 H 76.67230538111335 31.101698462606635 66.10236378623631 H 0.0 **** 0.06
26924 H 76.18720173423134 32.55107613150808 65.18968146970343 H 0.0 **** 0.06
26925 H 75.0864744538415 31.85247631428369 66.40129356037443 H 0.0 **** 0.06
26926 C 40.81022974846679 111.68660084404516 53.24159871858615 C 0.0 **** -0.24
26927 H 41.45249457766611 112.45636817692372 52.81526595795373 H 0.0 **** 0.06
26928 H 39.788036278062116 112.06089042367371 53.30695496278037 H 0.0 **** 0.06
26929 H 41.166964975707685 111.42831672924359 54.23891656003639 H 0.0 **** 0.06
26930 H 40.83340467214493 110.80103012523368 52.606657013506094 H 0.0 **** 0.06
26931 C 75.42336631561164 5.015597976295066 45.9754198916533 C 0.0 **** -0.24
26932 H 75.85354186648439 4.403267755905803 45.18321333926394 H 0.0 **** 0.06
26933 H 75.8253476011061 4.697908718427316 46.93831616105945 H 0.0 **** 0.06
26934 H 74.3395361141367 4.899525185675328 45.97781977089954 H 0.0 **** 0.06
26935 H 75.67576321438739 6.062704702293926 45.80353343560063 H 0.0 **** 0.06
26936 C 108.23455519922771 78.53406152660318 59.135006747023 C 0.0 **** -0.24
26937 H 108.94290869849662 78.94318954819175 58.41427228487436 H 0.0 **** 0.06
26938 H 107.49414756588641 77.92811553712966 58.61251984434085 H 0.0 **** 0.06
26939 H 107.73360466966021 79.35140875151393 59.65559943260115 H 0.0 **** 0.06
26940 H 108.76720219543341 77.91591257552705 59.85718093891114 H 0.0 **** 0.06
26941 C 17.936246560333146 85.33919139121087 89.33819589312924 C 0.0 **** -0.24
26942 H 17.768871450659162 85.98515680791985 88.47648840711173 H 0.0 **** 0.06
26943 H 17.750254663620183 85.90101963075313 90.25429505596844 H 0.0 **** 0.06
26944 H 18.967289598084562 84.98570826506614 89.33240935327836 H 0.0 **** 0.06
26945 H 17.258531018311487 84.48618415943787 89.29073094164727 H 0.0 **** 0.06
26946 C 17.113118583363047 6.633182289103189 8.705306788088425 C 0.0 **** -0.24
26947 H 17.449580080729703 5.906232858391419 9.444270061088265 H 0.0 **** 0.06
26948 H 16.674051353979195 6.110528617383238 7.855333448122872 H 0.0 **** 0.06
26949 H 17.962368556211175 7.227408936824332 8.367820883205031 H 0.0 **** 0.06
26950 H 16.366271088079742 7.288736384463732 9.154765666105824 H 0.0 **** 0.06
26951 C 56.49820465827342 89.1221871688594 49.289593284045566 C 0.0 **** -0.24
26952 H 55.755161204337895 88.53146410583751 49.824489713403494 H 0.0 **** 0.06
26953 H 57.31175125830261 88.47392756446958 48.96451183195654 H 0.0 **** 0.06
26954 H 56.89019142363095 89.8965282731041 49.948668209795954 H 0.0 **** 0.06
26955 H 56.034105454204806 89.58747474210851 48.419291597559834 H 0.0 **** 0.06
26956 C 54.408574564231195 52.42512946675873 37.349019589521106 C 0.0 **** -0.24
26957 H 53.3440572950304 52.20958102820774 37.436970530549786 H 0.0 **** 0.06
26958 H 54.98259735101367 51.60720694551841 37.785725676831476 H 0.0 **** 0.06
26959 H 54.63719516606699 53.351087457559146 37.87784663426186 H 0.0 **** 0.06
26960 H 54.67240021619194 52.53355227460554 36.29670304499183 H 0.0 **** 0.06
26961 C 18.939971970968486 96.17264447654394 68.837054621602 C 0.0 **** -0.24
26962 H 20.00882793721601 96.0242540071412 68.68706901676461 H 0.0 **** 0.06
26963 H 18.391065365258328 95.34895096893861 68.37939518326652 H 0.0 **** 0.06
26964 H 18.6351106113882 97.11284841711301 68.37656607100296 H 0.0 **** 0.06
26965 H 18.722774341317006 96.20390180928045 69.90478573409501 H 0.0 **** 0.06
26966 C 21.547203959996835 42.402000523054795 60.66537168692096 C 0.0 **** -0.24
26967 H 21.225577307311937 42.90381979297206 59.752611977319575 H 0.0 **** 0.06
26968 H 21.216071019540294 41.363670734066545 60.64488304181904 H 0.0 **** 0.06
26969 H 21.111006459782317 42.90597661299901 61.52885098339509 H 0.0 **** 0.06
26970 H 22.63438014596153 42.437147983263515 60.73517246341487 H 0.0 **** 0.06
26971 C 95.91669557087059 24.611738243861964 113.30227584325638 C 0.0 **** -0.24
26972 H 96.82399918077662 24.276408593664485 112.79890739791506 H 0.0 **** 0.06
26973 H 96.18572659985585 25.22505927119954 114.16364005929586 H 0.0 **** 0.06
26974 H 95.34596416649057 23.746412885611733 113.63635537043555 H 0.0 **** 0.06
26975 H 95.31447588639111 25.200617226826978 112.610607183446 H 0.0 **** 0.06
26976 C 31.984859168491482 10.067138172775856 89.74541107267986 C 0.0 **** -0.24
26977 H 32.45932444914587 10.499990234289555 90.62635736477785 H 0.0 **** 0.06
26978 H 31.260819154378794 10.773298530704494 89.33839118731227 H 0.0 **** 0.06
26979 H 31.475970585444372 9.144158419627445 90.02441353416444 H 0.0 **** 0.06
26980 H 32.74458401271801 9.850569670003608 88.9945124183084 H 0.0 **** 0.06
26981 C 115.87503982110539 11.338878802219494 113.86340320377212 C 0.0 **** -0.24
26982 H 115.82351154812889 11.944619817133468 114.76738502757058 H 0.0 **** 0.06
26983 H 116.91981330451898 11.155348651297626 113.60883353474435 H 0.0 **** 0.06
26984 H 115.38812637626413 11.866271995742292 113.04386235608928 H 0.0 **** 0.06
26985 H 115.37035279255207 10.387821522304769 114.03395999600457 H 0.0 **** 0.06
26986 C 111.5764173706568 14.379996758303761 32.60881768100905 C 0.0 **** -0.24
26987 H 111.52930003376503 14.233662233856165 31.529116430303525 H 0.0 **** 0.06
26988 H 111.39091614213413 15.428627489439208 32.841384745137695 H 0.0 **** 0.06
26989 H 112.56506172046176 14.096171854458206 32.970436768004205 H 0.0 **** 0.06
26990 H 110.82117321566503 13.760836008393682 33.09235439677206 H 0.0 **** 0.06
26991 C 84.46236946801454 5.723612313044953 40.41166178000667 C 0.0 **** -0.24
26992 H 84.56290152299077 4.850305473760443 39.767448301167995 H 0.0 **** 0.06
26993 H 83.78376626092482 5.492881749069909 41.232915488462766 H 0.0 **** 0.06
26994 H 84.06500006071403 6.557503934172416 39.83454240541952 H 0.0 **** 0.06
26995 H 85.4405678614023 5.992808002634604 40.81296249959765 H 0.0 **** 0.06
26996 C 48.61667850334209 63.680724580999026 58.83492160577555 C 0.0 **** -0.24
26997 H 49.56412660521579 63.73651412241048 59.37078554849529 H 0.0 **** 0.06
26998 H 47.999574691729265 62.89347991041507 59.26981625917375 H 0.0 **** 0.06
26999 H 48.80602146319012 63.45614357888155 57.78609413178961 H 0.0 **** 0.06
27000 H 48.097790409701815 64.63544335626648 58.91489475862954 H 0.0 **** 0.06
27001 C 104.863959087719 108.43188484076879 25.110044054415965 C 0.0 **** -0.24
27002 H 104.08923555536691 108.03989163984097 25.769860995810944 H 0.0 **** 0.06
27003 H 105.58140313596182 107.64316672087604 24.88457722163409 H 0.0 **** 0.06
27004 H 105.37513317014694 109.25974360255144 25.600436169999057 H 0.0 **** 0.06
27005 H 104.40703268529433 108.78379596262914 24.18434136919106 H 0.0 **** 0.06
27006 C 12.66934391619725 39.677415172096744 99.9621941127971 C 0.0 **** -0.24
27007 H 12.084125096832125 38.77940416000126 100.16376244159709 H 0.0 **** 0.06
27008 H 12.002224416474249 40.48599744517526 99.66431694779341 H 0.0 **** 0.06
27009 H 13.377338439685758 39.47503851675856 99.15841117674935 H 0.0 **** 0.06
27010 H 13.212929237954143 39.96563471679701 100.86153276105398 H 0.0 **** 0.06
27011 C 75.73369717419402 107.21175006366161 72.45721502672978 C 0.0 **** -0.24
27012 H 75.45632305099684 106.50084962777905 71.67878793997971 H 0.0 **** 0.06
27013 H 75.9439546762029 106.67291086608532 73.3818867197001 H 0.0 **** 0.06
27014 H 74.91192894127272 107.90872393513189 72.62160769039673 H 0.0 **** 0.06
27015 H 76.62116160776483 107.76170210221935 72.14632097956888 H 0.0 **** 0.06
27016 C 104.4720460808119 59.47847001136323 109.91296933578303 C 0.0 **** -0.24
27017 H 105.37670161560843 59.593202529457216 109.31496646987985 H 0.0 **** 0.06
27018 H 103.69683370841265 60.141204542602125 109.5295189192888 H 0.0 **** 0.06
27019 H 104.68868286840728 59.73474357239425 110.95019686047726 H 0.0 **** 0.06
27020 H 104.12948199845519 58.44552700751511 109.85713819164268 H 0.0 **** 0.06
27021 C 72.3224434890324 41.79258044546031 82.41471283533087 C 0.0 **** -0.24
27022 H 72.48570113595284 42.220587082465904 83.40484158082816 H 0.0 **** 0.06
27023 H 71.87903214445973 40.80151146581054 82.51698833983716 H 0.0 **** 0.06
27024 H 73.27523662173502 41.713527274666006 81.89262825096273 H 0.0 **** 0.06
27025 H 71.65016073112324 42.43622194509042 81.84869959996476 H 0.0 **** 0.06
27026 C 31.8504067999041 56.268179516831225 107.69675498913536 C 0.0 **** -0.24
27027 H 30.912609637148698 56.79424167695788 107.51600188859943 H 0.0 **** 0.06
27028 H 32.07539501929406 56.28443995540431 108.76349277033246 H 0.0 **** 0.06
27029 H 32.653141900565814 56.75999904100439 107.1475715454116 H 0.0 **** 0.06
27030 H 31.75842798012492 55.23535485788429 107.36018004119272 H 0.0 **** 0.06
27031 C 44.686789986159084 89.0783947680342 6.432167745257516 C 0.0 **** -0.24
27032 H 44.82342193147996 88.07509286020655 6.837219122624305 H 0.0 **** 0.06
27033 H 45.511518636231145 89.31208774159282 5.758112212667669 H 0.0 **** 0.06
27034 H 44.667483591381455 89.79981124144544 7.247742982934682 H 0.0 **** 0.06
27035 H 43.74594022136825 89.1230748098522 5.883544037569067 H 0.0 **** 0.06
27036 C 23.354007616362836 16.947701426393735 29.036783170759918 C 0.0 **** -0.24
27037 H 23.469046755708412 17.431164344989213 30.006403767618337 H 0.0 **** 0.06
27038 H 22.84975573281643 15.989699306563608 29.16596740337053 H 0.0 **** 0.06
27039 H 24.33525297532639 16.78604591947041 28.592811908136127 H 0.0 **** 0.06
27040 H 22.759508883832517 17.58585607969195 28.381671311220373 H 0.0 **** 0.06
27041 C 83.3423130658972 28.428674334890957 87.51964037687142 C 0.0 **** -0.24
27042 H 83.24506392472478 27.747047574775195 88.36505871029252 H 0.0 **** 0.06
27043 H 83.14019934068943 29.44764344067889 87.84907099659847 H 0.0 **** 0.06
27044 H 82.62979451779171 28.148509432410407 86.74359236384508 H 0.0 **** 0.06
27045 H 84.35526461010556 28.36938330830236 87.12021659746696 H 0.0 **** 0.06
27046 C 91.4526286147213 8.124599055483898 38.247175382333495 C 0.0 **** -0.24
27047 H 91.2685986643335 8.513738023691303 39.24888164144508 H 0.0 **** 0.06
27048 H 90.63364357821631 7.4657183023880265 37.95784297126531 H 0.0 **** 0.06
27049 H 92.38863535000615 7.566424551401653 38.2406067952964 H 0.0 **** 0.06
27050 H 91.51853677822096 8.9540044468649 37.54262418052673 H 0.0 **** 0.06
27051 C 25.111204676919236 78.31106238247733 61.198073825867255 C 0.0 **** -0.24
27052 H 25.076260948811594 77.2589197960892 60.91584438876204 H 0.0 **** 0.06
27053 H 25.83703238736757 78.44751986585308 62.000394899098836 H 0.0 **** 0.06
27054 H 24.126650884446306 78.62812598139477 61.541186095557535 H 0.0 **** 0.06
27055 H 25.4056061190108 78.90902105712385 60.33588258264113 H 0.0 **** 0.06
27056 C 20.10500489943098 91.10598820483825 45.30126507078472 C 0.0 **** -0.24
27057 H 20.091270646161945 90.01672867471052 45.318658646462666 H 0.0 **** 0.06
27058 H 19.121576370399424 91.48630237589026 45.57812971646041 H 0.0 **** 0.06
27059 H 20.35852121380603 91.45056741334497 44.298798017652814 H 0.0 **** 0.06
27060 H 20.849456713321814 91.47145555301799 46.009846589325946 H 0.0 **** 0.06
27061 C 76.26737142569286 110.80420527271224 84.45938085562614 C 0.0 **** -0.24
27062 H 75.47920896575812 110.42950366673632 83.80671465661041 H 0.0 **** 0.06
27063 H 75.88007743759863 111.62536972462361 85.06191618356644 H 0.0 **** 0.06
27064 H 77.10256842965521 111.15855485751507 83.85522864690108 H 0.0 **** 0.06
27065 H 76.60781491580227 110.0014926736437 85.11482831151733 H 0.0 **** 0.06
27066 C 56.391677148117 69.26432163180331 44.72164335932044 C 0.0 **** -0.24
27067 H 55.991901856258785 69.65718115165375 45.656950109232426 H 0.0 **** 0.06
27068 H 56.58818066584814 68.19799929734124 44.83094831053961 H 0.0 **** 0.06
27069 H 57.31851800195149 69.78219773815917 44.47772770606119 H 0.0 **** 0.06
27070 H 55.66609661015424 69.42126533787949 43.9232085540457 H 0.0 **** 0.06
27071 C 35.686262911446306 55.77778867055213 0.23808976931954362 C 0.0 **** -0.24
27072 H 34.928319678293974 55.48577621782951 -0.4894921126836067 H 0.0 **** 0.06
27073 H 36.131025073901526 56.7270749093681 -0.06279374399841231 H 0.0 **** 0.06
27074 H 36.460417877620614 55.01153083604399 0.28286246766556644 H 0.0 **** 0.06
27075 H 35.22554925555079 55.88610560151358 1.2202053168884817 H 0.0 **** 0.06
27076 C 24.153419927929292 71.18270424068241 47.85177028184191 C 0.0 **** -0.24
27077 H 24.493646942782334 71.44984196593845 48.851896037187004 H 0.0 **** 0.06
27078 H 23.593836237002563 70.24844046933218 47.89642277739023 H 0.0 **** 0.06
27079 H 25.014884755852847 71.05972406894996 47.196201277090154 H 0.0 **** 0.06
27080 H 23.511254519833642 71.97400258541144 47.46416596019037 H 0.0 **** 0.06
27081 C 1.411330099332332 106.13596990273402 18.42867093444778 C 0.0 **** -0.24
27082 H 1.088371131390943 106.69936363091095 17.554152509859023 H 0.0 **** 0.06
27083 H 0.5393898479943999 105.72578635262539 18.939273786420074 H 0.0 **** 0.06
27084 H 1.9520653082334434 106.79685918875958 19.106352539438035 H 0.0 **** 0.06
27085 H 2.0658210145507496 105.32197406891822 18.116276947159065 H 0.0 **** 0.06
27086 C 33.394717817587036 112.94399509370838 100.90094120837341 C 0.0 **** -0.24
27087 H 32.718494030317004 112.87314668356882 101.75328825373352 H 0.0 **** 0.06
27088 H 32.89126518524313 112.57724963060488 100.0064247089308 H 0.0 **** 0.06
27089 H 34.28324521468164 112.34168292230446 101.09023375010126 H 0.0 **** 0.06
27090 H 33.685464907577966 113.98490354172174 100.75473122064501 H 0.0 **** 0.06
27091 C 91.15832620977693 67.83263716507986 16.538014336499145 C 0.0 **** -0.24
27092 H 92.17538837721435 67.46293513311764 16.41534650121605 H 0.0 **** 0.06
27093 H 90.93412079584692 68.5485131430903 15.746892917245589 H 0.0 **** 0.06
27094 H 91.0632077961348 68.32071106164057 17.507912220414823 H 0.0 **** 0.06
27095 H 90.45925794324768 66.99792054474824 16.48179774305794 H 0.0 **** 0.06
27096 C 19.10215492416279 94.19121128364804 51.620075113949156 C 0.0 **** -0.24
27097 H 19.554769166461085 94.53181780303021 50.68819627677711 H 0.0 **** 0.06
27098 H 19.548594993212305 94.72743123819242 52.45760958530712 H 0.0 **** 0.06
27099 H 19.276411586540803 93.12168616948503 51.73809292695735 H 0.0 **** 0.06
27100 H 18.02987141455833 94.38408058604062 51.59442291052506 H 0.0 **** 0.06
27101 C 96.40749297961732 83.35148621219133 83.06788478256966 C 0.0 **** -0.24
27102 H 96.77723867809345 83.66722833271501 84.04337880085924 H 0.0 **** 0.06
27103 H 95.92693384790557 82.37738136389055 83.15852812569602 H 0.0 **** 0.06
27104 H 97.2411870955829 83.28269249871836 82.36858860825303 H 0.0 **** 0.06
27105 H 95.68533650196089 84.0809418548604 82.70060823238246 H 0.0 **** 0.06
27106 C 104.83825318387203 104.20905024313504 0.20778124111573604 C 0.0 **** -0.24
27107 H 105.61868929593153 103.6641453836744 0.739739672991659 H 0.0 **** 0.06
27108 H 105.16433608144577 105.23544221124405 0.03646257312056189 H 0.0 **** 0.06
27109 H 103.92596323310462 104.211762958625 0.8050058970476925 H 0.0 **** 0.06
27110 H 104.64426804195246 103.72372899687565 -0.7492567219987105 H 0.0 **** 0.06
27111 C 43.320896857241905 15.346738829628208 54.28184969232643 C 0.0 **** -0.24
27112 H 44.11604251276441 15.885296438473489 53.76748350690275 H 0.0 **** 0.06
27113 H 42.376656370754006 15.872834317903624 54.14248693843945 H 0.0 **** 0.06
27114 H 43.551250503045935 15.288121981317062 55.34594501541085 H 0.0 **** 0.06
27115 H 43.2400354195899 14.33952406384526 53.872156586235974 H 0.0 **** 0.06
27116 C 29.60688281706271 42.91063198092496 13.749341020420275 C 0.0 **** -0.24
27117 H 30.03616368095669 43.58970286207756 14.486631522440518 H 0.0 **** 0.06
27118 H 29.054871077289803 42.121742710624574 14.260693479711222 H 0.0 **** 0.06
27119 H 30.406473004105067 42.46889470820861 13.154668615374646 H 0.0 **** 0.06
27120 H 28.930996418853212 43.462687554588 13.09626692514206 H 0.0 **** 0.06
27121 C 43.57804528403622 88.73609543779811 61.021562783585296 C 0.0 **** -0.24
27122 H 42.86420376718556 88.02988008538988 60.59693029714218 H 0.0 **** 0.06
27123 H 43.593684500112374 88.6284481346374 62.107100967111066 H 0.0 **** 0.06
27124 H 43.282989466090186 89.7519006874101 60.76099947097299 H 0.0 **** 0.06
27125 H 44.57217933824194 88.53245941137608 60.621824759314805 H 0.0 **** 0.06
27126 C 62.338988357296614 108.56493095589076 78.56219023215904 C 0.0 **** -0.24
27127 H 61.27903343706299 108.55220868974976 78.81604898344375 H 0.0 **** 0.06
27128 H 62.85647375864704 107.79218121302844 79.13115093337743 H 0.0 **** 0.06
27129 H 62.76022269186973 109.54045612940726 78.80819614848036 H 0.0 **** 0.06
27130 H 62.461022810623206 108.37498595784629 77.49625449666979 H 0.0 **** 0.06
27131 C 86.03871600431114 57.275359289196004 55.1321178889242 C 0.0 **** -0.24
27132 H 86.33673295406055 56.23741567961588 54.980831512211495 H 0.0 **** 0.06
27133 H 85.30275107368993 57.32805730769064 55.93445640702373 H 0.0 **** 0.06
27134 H 85.6037763517997 57.665973522987315 54.21269985826146 H 0.0 **** 0.06
27135 H 86.91345339427482 57.86805809982421 55.401402537620044 H 0.0 **** 0.06
27136 C 50.127739614857205 21.11354772078076 111.84142527880903 C 0.0 **** -0.24
27137 H 50.58687047206601 20.34087714675536 111.22529821716955 H 0.0 **** 0.06
27138 H 50.63312626705937 21.156185315518997 112.80668118775495 H 0.0 **** 0.06
27139 H 49.074187420963995 20.87977962579191 111.99261314571825 H 0.0 **** 0.06
27140 H 50.21743185828808 22.077765214958703 111.34048065731031 H 0.0 **** 0.06
27141 C 61.89898614768043 24.91944742585548 56.08290237878174 C 0.0 **** -0.24
27142 H 60.8481171949863 25.20022588101716 56.14733383575316 H 0.0 **** 0.06
27143 H 62.005246308461096 24.061275237420148 55.419022985221986 H 0.0 **** 0.06
27144 H 62.26681420283515 24.658739104613318 57.07606416541748 H 0.0 **** 0.06
27145 H 62.47529978662935 25.757716310181678 55.69051295358103 H 0.0 **** 0.06
27146 C 107.91429506131702 4.0549729449840335 23.037870625219554 C 0.0 **** -0.24
27147 H 107.31916296140618 4.297137484127147 23.91897830015961 H 0.0 **** 0.06
27148 H 108.97310483185764 4.093308055907999 23.293663189813415 H 0.0 **** 0.06
27149 H 107.70403673528152 4.776871708042673 22.248852149742106 H 0.0 **** 0.06
27150 H 107.65912418303752 3.053033173961081 22.692380991788667 H 0.0 **** 0.06
27151 C 76.10373879385229 77.3287201341705 4.8988665239534015 C 0.0 **** -0.24
27152 H 76.05477910660883 78.16415249246148 4.199647428667731 H 0.0 **** 0.06
27153 H 75.14251961731733 77.2195840884729 5.401707061681819 H 0.0 **** 0.06
27154 H 76.88243510215179 77.51922656745998 5.637560591450722 H 0.0 **** 0.06
27155 H 76.3361111241563 76.41305660812336 4.354119772802434 H 0.0 **** 0.06
27156 C 17.47224050555741 39.24828422623676 58.682335208305176 C 0.0 **** -0.24
27157 H 17.51595720555028 40.090028520583104 57.99092507720735 H 0.0 **** 0.06
27158 H 17.902175958727668 39.54176793043888 59.64038761690688 H 0.0 **** 0.06
27159 H 18.038291255930517 38.41172860315865 58.27216108286501 H 0.0 **** 0.06
27160 H 16.433892028610956 38.949205294247065 58.82588587468382 H 0.0 **** 0.06
27161 C 30.900133634208437 17.39164126033242 19.633975673853342 C 0.0 **** -0.24
27162 H 31.152714924315383 18.44752882484397 19.53091372055843 H 0.0 **** 0.06
27163 H 30.563754214113004 17.003702265297818 18.67224712454555 H 0.0 **** 0.06
27164 H 30.104594691017688 17.27912525869229 20.37044528187255 H 0.0 **** 0.06
27165 H 31.78022374161484 16.83828187650721 19.961928965636673 H 0.0 **** 0.06
27166 C 77.2277610864671 114.41711290527499 114.61450144105385 C 0.0 **** -0.24
27167 H 76.84178072274354 113.90917794220053 115.49802945854589 H 0.0 **** 0.06
27168 H 77.25754473384009 113.71914569391934 113.77840622914448 H 0.0 **** 0.06
27169 H 78.2336186220956 114.78538434705085 114.81772385550403 H 0.0 **** 0.06
27170 H 76.57711298133432 115.25568976792378 114.36530578675143 H 0.0 **** 0.06
27171 C 49.51833381136447 27.11554996519999 45.24537246963965 C 0.0 **** -0.24
27172 H 48.89213082940458 27.07476986864826 46.136319905551886 H 0.0 **** 0.06
27173 H 50.46867773937748 26.621427546179163 45.44655643921891 H 0.0 **** 0.06
27174 H 49.699894126898215 28.156954624336883 44.97694217372697 H 0.0 **** 0.06
27175 H 49.01226041789582 26.6111900120181 44.42219368422968 H 0.0 **** 0.06
27176 C 67.66489278213292 45.07500957246941 75.59699020994603 C 0.0 **** -0.24
27177 H 67.2600650400275 44.729451247590674 74.64624552981552 H 0.0 **** 0.06
27178 H 68.72322330655551 44.816252478878255 75.65617601290994 H 0.0 **** 0.06
27179 H 67.12730516795632 44.59709410538591 76.41667672626383 H 0.0 **** 0.06
27180 H 67.55062553877384 46.15672336109631 75.66873170724567 H 0.0 **** 0.06
27181 C 94.33025087906299 37.07809146150231 1.7317446900615323 C 0.0 **** -0.24
27182 H 93.99114806182081 36.723308435548574 2.704485035753521 H 0.0 **** 0.06
27183 H 93.96503849757903 38.09234044556786 1.567721767829937 H 0.0 **** 0.06
27184 H 93.94523752792338 36.42185089993981 0.950584875737718 H 0.0 **** 0.06
27185 H 95.4196740345534 37.07566104553041 1.703587820948826 H 0.0 **** 0.06
27186 C 27.403702952079925 86.00805908010261 46.90765204362228 C 0.0 **** -0.24
27187 H 26.360594671857747 85.9545037856081 47.218113726188506 H 0.0 **** 0.06
27188 H 27.488091301994046 86.64635755707855 46.028364723397544 H 0.0 **** 0.06
27189 H 27.76213781500548 85.00710045963598 46.6657969466695 H 0.0 **** 0.06
27190 H 28.00326400323643 86.42237309926668 47.71740504374466 H 0.0 **** 0.06
27191 C 46.72173536756213 35.12701991479439 6.840695836523594 C 0.0 **** -0.24
27192 H 47.69175381676894 34.95751220268289 6.374064441645004 H 0.0 **** 0.06
27193 H 46.293357658875664 36.05528574045652 6.461079296496365 H 0.0 **** 0.06
27194 H 46.844737995821504 35.19939740321905 7.92098717068032 H 0.0 **** 0.06
27195 H 46.0552106413931 34.29683137645781 6.605901538379115 H 0.0 **** 0.06
27196 C 90.16346818197007 31.415109679584532 56.869948204767155 C 0.0 **** -0.24
27197 H 90.19892648054463 31.747746813877313 57.90808349793048 H 0.0 **** 0.06
27198 H 89.77067876208372 32.21687735086448 56.245257413689586 H 0.0 **** 0.06
27199 H 89.51606047596567 30.541431688179443 56.79134404723496 H 0.0 **** 0.06
27200 H 91.16834584606204 31.153648849147828 56.53801345072593 H 0.0 **** 0.06
27201 C 101.99503305803344 45.60789010218484 19.936422292436305 C 0.0 **** -0.24
27202 H 101.48941332920798 46.059140320801575 19.082858897186526 H 0.0 **** 0.06
27203 H 101.36231490622642 45.695682292259086 20.8198252837646 H 0.0 **** 0.06
27204 H 102.93887751260817 46.122655004679 20.11312609823993 H 0.0 **** 0.06
27205 H 102.18687462524807 44.55549793656674 19.728896253123622 H 0.0 **** 0.06
27206 C 10.543861719381795 37.629960573049296 83.27445434321652 C 0.0 **** -0.24
27207 H 9.739400604997002 37.86769024438198 82.57773307233958 H 0.0 **** 0.06
27208 H 10.538591403045302 36.5592219740723 83.48329099077165 H 0.0 **** 0.06
27209 H 10.395814396546825 38.1818909508965 84.20225300664839 H 0.0 **** 0.06
27210 H 11.500027415308068 37.909424825667045 82.83365011724351 H 0.0 **** 0.06
27211 C 96.81976272768891 66.58522069912914 13.52778079383852 C 0.0 **** -0.24
27212 H 96.62461055650651 67.64344103528725 13.355018283533564 H 0.0 **** 0.06
27213 H 96.394766351166 66.00029851043092 12.71172338070443 H 0.0 **** 0.06
27214 H 96.3644153755444 66.28061953231509 14.469532571443008 H 0.0 **** 0.06
27215 H 97.89576365322641 66.4173692820226 13.572841390005763 H 0.0 **** 0.06
27216 C 56.344073342304625 35.86939394406693 43.62666653720481 C 0.0 **** -0.24
27217 H 57.307764589177395 35.36423733406278 43.69203118569636 H 0.0 **** 0.06
27218 H 55.934619238185235 35.741840432547704 42.623545352965756 H 0.0 **** 0.06
27219 H 56.47711058348693 36.93180185119806 43.831671669939944 H 0.0 **** 0.06
27220 H 55.658458415092014 35.44052921348984 44.356858098167116 H 0.0 **** 0.06
27221 C 54.69390518914065 76.22342982388625 49.76976372921558 C 0.0 **** -0.24
27222 H 53.793332354432835 75.6108321528236 49.82283231674961 H 0.0 **** 0.06
27223 H 55.44642063108404 75.71026949792042 49.17128689114105 H 0.0 **** 0.06
27224 H 55.07970382186636 76.38954766333143 50.77609662225666 H 0.0 **** 0.06
27225 H 54.453765265419975 77.18154717067881 49.30980234954322 H 0.0 **** 0.06
27226 C 66.15191697412311 77.08719648242447 81.25589912913833 C 0.0 **** -0.24
27227 H 66.39007888791 76.34194862688864 82.01510009954077 H 0.0 **** 0.06
27228 H 65.29003479696004 77.67111448342101 81.57849705495386 H 0.0 **** 0.06
27229 H 65.92101648489236 76.58638206020248 80.31587444107856 H 0.0 **** 0.06
27230 H 67.00660669233942 77.74795410340276 81.1151605850522 H 0.0 **** 0.06
27231 C 26.957487246576342 3.349460658173143 91.50761147109834 C 0.0 **** -0.24
27232 H 27.587448706539554 4.033738636048213 92.07585944152189 H 0.0 **** 0.06
27233 H 25.969670192817908 3.792765373224114 91.37414961737542 H 0.0 **** 0.06
27234 H 26.86401651165928 2.408095302811347 92.04703794205092 H 0.0 **** 0.06
27235 H 27.40924135000442 3.166698201201598 90.53202716738409 H 0.0 **** 0.06
27236 C 59.87550712790562 106.63610716836861 63.22457059480561 C 0.0 **** -0.24
27237 H 59.0518571897623 106.70611729501444 62.51504974443421 H 0.0 **** 0.06
27238 H 60.673304404262694 106.02895057459585 62.797611707523544 H 0.0 **** 0.06
27239 H 59.5218944059481 106.17509794159207 64.14731061346072 H 0.0 **** 0.06
27240 H 60.25474264781417 107.63493330640677 63.44122547744229 H 0.0 **** 0.06
27241 C 34.18364613396731 35.69551345393387 5.801728612754433 C 0.0 **** -0.24
27242 H 33.37153531117373 36.09404755051446 5.194848017142418 H 0.0 **** 0.06
27243 H 35.138232504893075 36.04872275985235 5.410588419440121 H 0.0 **** 0.06
27244 H 34.15964389561814 34.60599056356591 5.771063567457036 H 0.0 **** 0.06
27245 H 34.06630187923832 36.03208273718059 6.832220265526596 H 0.0 **** 0.06
27246 C 60.19173401791062 23.127719072810635 76.46568886014128 C 0.0 **** -0.24
27247 H 60.40121988800031 22.0778726370541 76.26409370621337 H 0.0 **** 0.06
27248 H 59.40436188237625 23.476032976090124 75.79750843643231 H 0.0 **** 0.06
27249 H 61.095277324941875 23.71602155257699 76.30159646705555 H 0.0 **** 0.06
27250 H 59.86865215638231 23.24158273871373 77.50054041455964 H 0.0 **** 0.06
27251 C 45.85164632700912 72.61950028203887 8.779576925791375 C 0.0 **** -0.24
27252 H 45.875615264089646 71.95223707739129 7.9177167925946605 H 0.0 **** 0.06
27253 H 44.84199736912373 73.01054290976379 8.90900742288413 H 0.0 **** 0.06
27254 H 46.54354532617765 73.44603810595959 8.617528916470278 H 0.0 **** 0.06
27255 H 46.146324162946115 72.06949242024004 9.672605372991526 H 0.0 **** 0.06
27256 C 62.95938723913963 4.415422740945246 111.29050124078036 C 0.0 **** -0.24
27257 H 63.86762927151574 3.85656517587789 111.06516553348725 H 0.0 **** 0.06
27258 H 62.116836979582786 3.7267399163918498 111.35907693243348 H 0.0 **** 0.06
27259 H 62.77303713041658 5.139069070021762 110.49663336087102 H 0.0 **** 0.06
27260 H 63.08010530394381 4.939115624804657 112.23813639976296 H 0.0 **** 0.06
27261 C 16.30992416469161 40.21337365893496 94.66218048394653 C 0.0 **** -0.24
27262 H 16.770562583911584 40.68983109126628 93.79605740491286 H 0.0 **** 0.06
27263 H 16.75124824259251 39.22707358253502 94.81063201278891 H 0.0 **** 0.06
27264 H 15.238172471385866 40.1109982632015 94.49254520063027 H 0.0 **** 0.06
27265 H 16.48107257599554 40.82501349083982 95.5475332061316 H 0.0 **** 0.06
27266 C 25.584833791379197 43.72182435167895 113.37964390806125 C 0.0 **** -0.24
27267 H 26.395950769693513 44.43511328420033 113.52172005211294 H 0.0 **** 0.06
27268 H 24.63469229316553 44.19831074410854 113.62246368332892 H 0.0 **** 0.06
27269 H 25.7377344118691 42.86160270343464 114.03152478827737 H 0.0 **** 0.06
27270 H 25.570526607448755 43.39163275808727 112.34054169020395 H 0.0 **** 0.06
27271 C 22.243278891438443 110.57622873943025 90.13811281571401 C 0.0 **** -0.24
27272 H 22.762197976636266 109.83845757293005 89.5257058654193 H 0.0 **** 0.06
27273 H 21.199138953979993 110.28352992113773 90.25339424861784 H 0.0 **** 0.06
27274 H 22.296824214505023 111.55166314778893 89.65544820946681 H 0.0 **** 0.06
27275 H 22.715761702074193 110.62979922822473 91.11938688651853 H 0.0 **** 0.06
27276 C 102.6684527040133 94.65611268420167 71.08579765889158 C 0.0 **** -0.24
27277 H 101.86997437347634 94.3800733909506 70.39665162818386 H 0.0 **** 0.06
27278 H 103.23945683174065 93.76797139780939 71.35451281611708 H 0.0 **** 0.06
27279 H 102.23619267664378 95.09696601043782 71.9847188086072 H 0.0 **** 0.06
27280 H 103.32658680936595 95.38028015640418 70.60645072615557 H 0.0 **** 0.06
27281 C 47.95699144904576 53.906444914958705 63.57861590221637 C 0.0 **** -0.24
27282 H 48.72223837786602 53.60160962903665 62.86441273113928 H 0.0 **** 0.06
27283 H 48.36298847321396 54.671833568223825 64.2405465782889 H 0.0 **** 0.06
27284 H 47.64496690741095 53.04433073535967 64.16746591519268 H 0.0 **** 0.06
27285 H 47.098422324946874 54.30926670198918 63.04062866918366 H 0.0 **** 0.06
27286 C 84.01341057736397 10.97199375142755 61.15611326987569 C 0.0 **** -0.24
27287 H 83.47613690593784 11.913602146493847 61.26231637358963 H 0.0 **** 0.06
27288 H 84.81277654001643 10.925124198039157 61.89614428147712 H 0.0 **** 0.06
27289 H 84.4397101551127 10.907303112349258 60.155664734435916 H 0.0 **** 0.06
27290 H 83.3243507936272 10.14152858689653 61.31150248629852 H 0.0 **** 0.06
27291 C 12.285324679384445 46.23723838861402 37.643977011774 C 0.0 **** -0.24
27292 H 12.518749666201728 47.12186351943923 38.23563286688016 H 0.0 **** 0.06
27293 H 11.48086915345246 46.46869748512412 36.94519907901153 H 0.0 **** 0.06
27294 H 11.971178523363506 45.430480639595366 38.306758063284384 H 0.0 **** 0.06
27295 H 13.171540342408235 45.927203670505264 37.08896538315108 H 0.0 **** 0.06
27296 C 90.04801239644698 45.9791849566393 36.17283358779162 C 0.0 **** -0.24
27297 H 90.20827313722972 45.01496515833162 36.65619502920014 H 0.0 **** 0.06
27298 H 90.00508631381817 45.84067579496741 35.09252524422325 H 0.0 **** 0.06
27299 H 90.87030985719535 46.65079579212136 36.4209935493043 H 0.0 **** 0.06
27300 H 89.10912456916103 46.40780323427208 36.5231028601829 H 0.0 **** 0.06
27301 C 65.5367299910514 28.914224738283117 43.7934205905199 C 0.0 **** -0.24
27302 H 66.5928454927161 28.68653755996707 43.64915990243915 H 0.0 **** 0.06
27303 H 65.34616603283098 29.095996436720178 44.85228041135491 H 0.0 **** 0.06
27304 H 64.9335182212543 28.07171460496388 43.45475585065353 H 0.0 **** 0.06
27305 H 65.27530497758664 29.803644113479557 43.219529722055825 H 0.0 **** 0.06
27306 C 35.61216381709884 61.12870800937566 2.196232879566651 C 0.0 **** -0.24
27307 H 34.52994848917935 61.16510697295445 2.0757107106060175 H 0.0 **** 0.06
27308 H 35.97820322083499 62.11175438699979 2.4920783060533296 H 0.0 **** 0.06
27309 H 36.07359604785244 60.83788971970668 1.2529293609396461 H 0.0 **** 0.06
27310 H 35.86717745106184 60.39902988343087 2.966168302809777 H 0.0 **** 0.06
27311 C 92.20478302959609 45.26204225003185 5.0528709748397205 C 0.0 **** -0.24
27312 H 92.03159401794275 45.98694887725788 5.848169972367742 H 0.0 **** 0.06
27313 H 93.1809592427275 45.44322191624472 4.603137188982501 H 0.0 **** 0.06
27314 H 91.42973688465486 45.36448244120236 4.294019886368247 H 0.0 **** 0.06
27315 H 92.17731089885783 44.2545090070492 5.467828320190122 H 0.0 **** 0.06
27316 C 105.90237470304021 3.3200719042188496 86.23694773396903 C 0.0 **** -0.24
27317 H 106.51181324316667 4.213881542698953 86.36671096416103 H 0.0 **** 0.06
27318 H 106.43808447837881 2.6027911513590976 85.615884242209 H 0.0 **** 0.06
27319 H 104.96253319000931 3.587924656613307 85.75584660453711 H 0.0 **** 0.06
27320 H 105.6981316171964 2.8755917319271838 87.21196814251505 H 0.0 **** 0.06
27321 C 26.764226455573137 109.62156719129757 59.410319652071735 C 0.0 **** -0.24
27322 H 26.472071772073264 109.12753671551386 58.48393525240415 H 0.0 **** 0.06
27323 H 25.874075802365326 109.97703890990152 59.92906256535008 H 0.0 **** 0.06
27324 H 27.4148063109713 110.46622722660098 59.18172420279426 H 0.0 **** 0.06
27325 H 27.297016796545222 108.91389304060306 60.04537657499044 H 0.0 **** 0.06
27326 C 22.810503118834134 40.12238663211485 82.2171148511452 C 0.0 **** -0.24
27327 H 23.76265669465505 39.780568887820095 81.81108928215485 H 0.0 **** 0.06
27328 H 22.483635208508872 39.439141000805876 83.00190425830584 H 0.0 **** 0.06
27329 H 22.064281328899852 40.14597056579345 81.42173475196199 H 0.0 **** 0.06
27330 H 22.931171481274475 41.122796469204445 82.6323952904653 H 0.0 **** 0.06
27331 C 24.189586665684033 8.421366973585876 11.838663495209886 C 0.0 **** -0.24
27332 H 25.147118947919694 8.744480170184957 12.248622535798006 H 0.0 **** 0.06
27333 H 24.11145078395151 7.336099872177755 11.910068734768927 H 0.0 **** 0.06
27334 H 24.121348385410244 8.723001317752988 10.793521971021875 H 0.0 **** 0.06
27335 H 23.37977100006958 8.882902167762389 12.404220246289569 H 0.0 **** 0.06
27336 C 55.21022853601548 95.80003833115784 19.869164365211475 C 0.0 **** -0.24
27337 H 55.036595281669776 96.28712711270248 18.909626160206756 H 0.0 **** 0.06
27338 H 54.560042296139386 94.92984957042037 19.9567880063058 H 0.0 **** 0.06
27339 H 54.99220944198717 96.49978892203578 20.6760989053534 H 0.0 **** 0.06
27340 H 56.25218990052332 95.48526054668115 19.933453251015322 H 0.0 **** 0.06
27341 C 91.83401739404059 23.47130179450835 74.13078208059717 C 0.0 **** -0.24
27342 H 92.90101598426617 23.68586318088738 74.0683962504366 H 0.0 **** 0.06
27343 H 91.38956403725007 24.06840655221511 74.92742171713012 H 0.0 **** 0.06
27344 H 91.68793403532965 22.412737542771737 74.34462525765836 H 0.0 **** 0.06
27345 H 91.35819450059074 23.718410033779406 73.18194509412608 H 0.0 **** 0.06
27346 C 4.992662251266296 7.292680591399474 95.7143380899999 C 0.0 **** -0.24
27347 H 5.5242135075082075 7.822035176881883 96.50627473056221 H 0.0 **** 0.06
27348 H 3.940212869836074 7.197902098985992 95.98364080251488 H 0.0 **** 0.06
27349 H 5.4258286092752215 6.300443489843033 95.58758635563197 H 0.0 **** 0.06
27350 H 5.08199348033315 7.850364317145861 94.78275595422465 H 0.0 **** 0.06
27351 C 41.290585084841325 90.92324361607932 74.6904995195298 C 0.0 **** -0.24
27352 H 41.36159662853845 90.41446351878771 75.65133075871267 H 0.0 **** 0.06
27353 H 40.55957817033203 90.4134056093897 74.06250056624515 H 0.0 **** 0.06
27354 H 42.264556532902844 90.91007042495637 74.20008774614126 H 0.0 **** 0.06
27355 H 40.97742889979506 91.95518853648244 74.84863058013889 H 0.0 **** 0.06
27356 C 20.680927039045798 4.277904129055148 7.831765226166011 C 0.0 **** -0.24
27357 H 21.176654110015022 5.204899176779943 7.542600152795359 H 0.0 **** 0.06
27358 H 21.254537684355682 3.428490030191721 7.4598363166948705 H 0.0 **** 0.06
27359 H 19.677939331687412 4.254056221625367 7.406729416502117 H 0.0 **** 0.06
27360 H 20.615920424221883 4.225424319047676 8.919169768690175 H 0.0 **** 0.06
27361 C 27.81638620504401 61.16254343990839 106.15195654865987 C 0.0 **** -0.24
27362 H 28.480201763568402 60.301714194206255 106.06754382451331 H 0.0 **** 0.06
27363 H 27.006346230754076 60.92942218893383 106.84255066847089 H 0.0 **** 0.06
27364 H 27.40269711338243 61.398586339160005 105.17144767679022 H 0.0 **** 0.06
27365 H 28.37807536180486 62.01824671043937 106.52528977934854 H 0.0 **** 0.06
27366 C 31.071729674257426 63.10592596096231 47.59419586812487 C 0.0 **** -0.24
27367 H 32.005113366477815 63.26531267063764 47.05454848470896 H 0.0 **** 0.06
27368 H 30.94930996102812 63.88366844102707 48.348119347133604 H 0.0 **** 0.06
27369 H 31.095560080133566 62.12946973668164 48.0794483670075 H 0.0 **** 0.06
27370 H 30.237072048034747 63.14396659834202 46.89409579036817 H 0.0 **** 0.06
27371 C 70.82036447160476 50.5735472218779 31.965025237891297 C 0.0 **** -0.24
27372 H 70.64667063970917 49.51620770497441 32.16603314269494 H 0.0 **** 0.06
27373 H 70.8427143870058 50.73908215668462 30.887043639917948 H 0.0 **** 0.06
27374 H 71.77532215144231 50.87332967148967 32.3978519081204 H 0.0 **** 0.06
27375 H 70.01892925358635 51.16462595030499 32.407634605490955 H 0.0 **** 0.06
27376 C 97.53608735901204 106.91819463735914 7.413395333945672 C 0.0 **** -0.24
27377 H 97.91502270489019 106.94082212741793 8.435728264438438 H 0.0 **** 0.06
27378 H 97.52984995227254 107.92945271759103 7.0065541491043035 H 0.0 **** 0.06
27379 H 96.5229383935924 106.51833794101626 7.411103742183315 H 0.0 **** 0.06
27380 H 98.1787729172848 106.28367119773492 6.802795748055175 H 0.0 **** 0.06
27381 C 113.50251546873298 93.88263266800652 111.16937039545056 C 0.0 **** -0.24
27382 H 113.52287620956923 94.75575228832949 110.5170942810222 H 0.0 **** 0.06
27383 H 114.42064662017384 93.84489379904673 111.75554828181043 H 0.0 **** 0.06
27384 H 113.41989852570669 92.979753757499 110.5638477284217 H 0.0 **** 0.06
27385 H 112.64482432857466 93.95004661663395 111.83860489767673 H 0.0 **** 0.06
27386 C 19.494334985871806 97.98937970977674 38.91693802678748 C 0.0 **** -0.24
27387 H 19.264731351392975 97.4699018228379 37.98634333661141 H 0.0 **** 0.06
27388 H 19.022186040336155 97.46960282201576 39.750045379261564 H 0.0 **** 0.06
27389 H 19.11760928735496 99.01081566000599 38.86384471194032 H 0.0 **** 0.06
27390 H 20.5744300398523 98.00750667476899 39.06431059177993 H 0.0 **** 0.06
27391 C 71.81507428910732 91.17074157356488 77.74780234405074 C 0.0 **** -0.24
27392 H 72.42268796707162 90.92387637301144 78.61790618550563 H 0.0 **** 0.06
27393 H 71.81890083709845 90.33110305434909 77.05183241550714 H 0.0 **** 0.06
27394 H 72.22666914391118 92.0528319778636 77.2559326217358 H 0.0 **** 0.06
27395 H 70.79203920834811 91.37515488903556 78.06553815345434 H 0.0 **** 0.06
27396 C 3.3615336767435444 110.65392142729452 87.22359366725976 C 0.0 **** -0.24
27397 H 4.149680986808017 111.24078745229777 87.69627293723863 H 0.0 **** 0.06
27398 H 3.31911338168797 109.66551522211503 87.68237390889817 H 0.0 **** 0.06
27399 H 3.5742680447690525 110.5517098854671 86.15940268375806 H 0.0 **** 0.06
27400 H 2.4043304087368877 111.15809211216788 87.35583347827117 H 0.0 **** 0.06
27401 C 36.08016124255926 109.4323071061678 112.88243993111789 C 0.0 **** -0.24
27402 H 35.93254310687382 110.43286736305554 113.28990730428043 H 0.0 **** 0.06
27403 H 35.5041920320989 108.71424631621501 113.46665629206163 H 0.0 **** 0.06
27404 H 37.138487012885435 109.17456640750899 112.92932151783157 H 0.0 **** 0.06
27405 H 35.74597664016295 109.41035196639669 111.84522868461585 H 0.0 **** 0.06
27406 C 8.910064696215045 101.80384469655866 1.6169920611356279 C 0.0 **** -0.24
27407 H 9.935127342832004 101.70621179325428 1.9736318027466666 H 0.0 **** 0.06
27408 H 8.224773385404518 101.41210322097345 2.3694128566031196 H 0.0 **** 0.06
27409 H 8.792195897483253 101.2403958103709 0.6908171782816606 H 0.0 **** 0.06
27410 H 8.686793324009102 102.8546568957467 1.433819622070125 H 0.0 **** 0.06
27411 C 61.54443872563455 85.00881958354704 73.58919920747104 C 0.0 **** -0.24
27412 H 60.6734922271214 84.6074899380856 73.06975013141522 H 0.0 **** 0.06
27413 H 61.22785851094385 85.80114448127387 74.26808271935437 H 0.0 **** 0.06
27414 H 62.24646120553629 85.4125910833871 72.85969350871278 H 0.0 **** 0.06
27415 H 62.02651678868493 84.21334274011562 74.15631102420042 H 0.0 **** 0.06
27416 C 86.74678006324399 22.39968503769782 25.715998731877335 C 0.0 **** -0.24
27417 H 86.44593611339627 22.852790766905258 24.770400098082064 H 0.0 **** 0.06
27418 H 86.32615721352687 22.973361638368957 26.542437588043185 H 0.0 **** 0.06
27419 H 87.83458407664838 22.40105685279464 25.78906125465423 H 0.0 **** 0.06
27420 H 86.38059784795311 21.37470802412686 25.760125553387525 H 0.0 **** 0.06
27421 C 89.17709712751626 13.1835392105001 110.48618525717814 C 0.0 **** -0.24
27422 H 89.45405540670085 12.407716055180316 111.19987222573691 H 0.0 **** 0.06
27423 H 89.21793095250025 14.15776461633412 110.97291514937237 H 0.0 **** 0.06
27424 H 88.16539274523169 12.999952163858836 110.1244248470622 H 0.0 **** 0.06
27425 H 89.87156112695011 13.167544915858855 109.64571066659663 H 0.0 **** 0.06
27426 C 46.40232977974932 21.44248421503906 105.54633576720545 C 0.0 **** -0.24
27427 H 46.4200050174307 21.075093829996533 104.52031362329501 H 0.0 **** 0.06
27428 H 46.97789973718665 20.770585124546443 106.1829049949589 H 0.0 **** 0.06
27429 H 45.3718912628874 21.48589611358487 105.89920745787686 H 0.0 **** 0.06
27430 H 46.84026125183715 22.440707749271 105.58119881620306 H 0.0 **** 0.06
27431 C 97.00048210881421 95.26186227163686 19.73205587328971 C 0.0 **** -0.24
27432 H 97.08036551718482 94.66888371698172 18.821652909188344 H 0.0 **** 0.06
27433 H 97.85293364312598 95.05350532044355 20.377623255583444 H 0.0 **** 0.06
27434 H 96.07781055962825 95.00400942356171 20.25310264980314 H 0.0 **** 0.06
27435 H 96.98867474350894 96.32070235956422 19.475313284202514 H 0.0 **** 0.06
27436 C 1.2469859183207959 71.67635079066822 16.084464988454414 C 0.0 **** -0.24
27437 H 0.6989685168061222 71.09070000970411 16.82275941535204 H 0.0 **** 0.06
27438 H 0.7805024700631868 71.55723317533761 15.10735360706181 H 0.0 **** 0.06
27439 H 2.279045146619458 71.32954199850195 16.040024860142978 H 0.0 **** 0.06
27440 H 1.2292987214463693 72.72804217044957 16.370545335519267 H 0.0 **** 0.06
27441 C 107.57026645490902 24.84220001746303 106.87332084718905 C 0.0 **** -0.24
27442 H 106.69603200293967 25.150451770657867 106.29947543049398 H 0.0 **** 0.06
27443 H 108.24928704080506 25.688356229523436 106.98273435207805 H 0.0 **** 0.06
27444 H 108.08030167659008 24.03222757120892 106.35111178171456 H 0.0 **** 0.06
27445 H 107.25538061645656 24.498279464958898 107.85864623897491 H 0.0 **** 0.06
27446 C 49.51683302597263 81.50797394129154 16.786413394788553 C 0.0 **** -0.24
27447 H 50.51164698736133 81.82361574335272 17.100828711475053 H 0.0 **** 0.06
27448 H 49.57302513235737 81.06897186318048 15.78989133073334 H 0.0 **** 0.06
27449 H 48.850900444590025 82.37050933896455 16.768164563583575 H 0.0 **** 0.06
27450 H 49.133059684000074 80.76724384939646 17.488144485309096 H 0.0 **** 0.06
27451 C 81.78287620731692 32.92977777187129 30.66209821430496 C 0.0 **** -0.24
27452 H 81.11153854782447 33.52979098004883 31.2761938381511 H 0.0 **** 0.06
27453 H 82.62759830863592 32.59768654548735 31.265695386965234 H 0.0 **** 0.06
27454 H 82.14451908433011 33.529350112295035 29.82676355704467 H 0.0 **** 0.06
27455 H 81.24499460991171 32.0614527485111 30.28014447738451 H 0.0 **** 0.06
27456 C 32.71050907511807 12.900506865143825 111.89524580296714 C 0.0 **** -0.24
27457 H 32.77903697359113 13.858326205124627 111.38009285600637 H 0.0 **** 0.06
27458 H 33.16688351609895 12.123583158419933 111.28027377918032 H 0.0 **** 0.06
27459 H 31.66330276804848 12.655983456144213 112.07129343436439 H 0.0 **** 0.06
27460 H 33.23438116836434 12.962259853479452 112.84948591626119 H 0.0 **** 0.06
27461 C 84.60756366781416 48.41703445312936 34.32388175549124 C 0.0 **** -0.24
27462 H 85.29546554751579 47.588395623987424 34.15848466367291 H 0.0 **** 0.06
27463 H 84.3182820606213 48.84563054177153 33.364383400242104 H 0.0 **** 0.06
27464 H 85.09711337604621 49.18010151948448 34.9297549611137 H 0.0 **** 0.06
27465 H 83.72072553898114 48.05459774021878 34.843842640697304 H 0.0 **** 0.06
27466 C 85.2360299054913 93.27859015499271 51.25489887043537 C 0.0 **** -0.24
27467 H 84.49622121280271 92.57657423908253 50.871192909171214 H 0.0 **** 0.06
27468 H 85.96440291612436 93.50192751646865 50.4743831305006 H 0.0 **** 0.06
27469 H 85.7457000866313 92.83725303951438 52.11189563898121 H 0.0 **** 0.06
27470 H 84.7385650955124 94.19920048456717 51.56235621528526 H 0.0 **** 0.06
27471 C 96.88359413792915 78.7640584487354 36.21243674584878 C 0.0 **** -0.24
27472 H 97.51863181307658 78.53646302955708 37.06807275391617 H 0.0 **** 0.06
27473 H 96.19160034294566 79.56458235781477 36.47622203653793 H 0.0 **** 0.06
27474 H 96.32031941166576 77.87376977921518 35.930810602660685 H 0.0 **** 0.06
27475 H 97.50304417071251 79.08123887051805 35.373476201328344 H 0.0 **** 0.06
27476 C 94.66060972914033 101.82766886344652 106.41538547698808 C 0.0 **** -0.24
27477 H 94.74581092389903 102.91059249556716 106.329097127748 H 0.0 **** 0.06
27478 H 95.61812541860944 101.36743072533739 106.17089389535198 H 0.0 **** 0.06
27479 H 93.89718348678049 101.46745258201949 105.72700690185692 H 0.0 **** 0.06
27480 H 94.38204907741928 101.56582696643449 107.43720369058333 H 0.0 **** 0.06
27481 C 2.475528582758523 45.80600775274572 33.925308034632366 C 0.0 **** -0.24
27482 H 1.5201175218431686 46.33187011445854 33.92498276787657 H 0.0 **** 0.06
27483 H 2.879022382419574 45.78566451171476 32.9117545839984 H 0.0 **** 0.06
27484 H 2.3281783918963423 44.785866985604905 34.27847405090239 H 0.0 **** 0.06
27485 H 3.1740194770987884 46.322094740346785 34.58421793944396 H 0.0 **** 0.06
27486 C 30.299439848833345 22.30927239417491 30.989957087963973 C 0.0 **** -0.24
27487 H 30.752555071382062 22.004269488089435 31.932986435579238 H 0.0 **** 0.06
27488 H 31.04985722318463 22.799005283839094 30.368055884015433 H 0.0 **** 0.06
27489 H 29.482191393675294 23.003729196641473 31.18709997764131 H 0.0 **** 0.06
27490 H 29.91385628167808 21.432192846564135 30.471423327117066 H 0.0 **** 0.06
27491 C 97.67932872702855 47.05176034274797 56.05049773126525 C 0.0 **** -0.24
27492 H 97.39522488948249 46.92847258155234 57.095377948361204 H 0.0 **** 0.06
27493 H 98.43159377979265 47.8377659598778 55.969441343257856 H 0.0 **** 0.06
27494 H 96.801770946957 47.327092493506996 55.465067005777485 H 0.0 **** 0.06
27495 H 98.08954045717923 46.115791079554896 55.6720252782135 H 0.0 **** 0.06
27496 C 101.05248704231485 32.79253396944395 70.09805614974493 C 0.0 **** -0.24
27497 H 101.14884412081415 31.88773220864738 69.49663638819928 H 0.0 **** 0.06
27498 H 101.91506378196686 33.43760095742428 69.9243707178469 H 0.0 **** 0.06
27499 H 101.00583693104653 32.52357139628259 71.15275249808283 H 0.0 **** 0.06
27500 H 100.14106684260827 33.31960247974149 69.81570784502424 H 0.0 **** 0.06
27501 C 29.156537198006447 7.710322378932759 20.012388820890237 C 0.0 **** -0.24
27502 H 29.97921821813027 8.378209982098497 19.755035561727823 H 0.0 **** 0.06
27503 H 29.52866455078327 6.687094952665063 20.081378259920086 H 0.0 **** 0.06
27504 H 28.388085297261576 7.767647559723372 19.24180785472265 H 0.0 **** 0.06
27505 H 28.73316671346678 8.008359622591286 20.971043988657755 H 0.0 **** 0.06
27506 C 20.24252591253756 33.72990893080265 108.8357925427781 C 0.0 **** -0.24
27507 H 20.049328460421606 34.53660678536244 108.12921924417884 H 0.0 **** 0.06
27508 H 21.314490391835704 33.65424982761738 109.01795017863292 H 0.0 **** 0.06
27509 H 19.876107739882855 32.790131464692536 108.4224965230947 H 0.0 **** 0.06
27510 H 19.727876971826163 33.93821627029797 109.7742280070245 H 0.0 **** 0.06
27511 C 97.49887829782523 83.64182222311138 112.14143348879854 C 0.0 **** -0.24
27512 H 96.75637531396637 83.72526426054995 111.3482240192174 H 0.0 **** 0.06
27513 H 97.00323615401788 83.37493884573865 113.07559020147335 H 0.0 **** 0.06
27514 H 98.01064517030363 84.5970853954311 112.2617436701971 H 0.0 **** 0.06
27515 H 98.22322541956555 82.87131428760242 111.88056143826637 H 0.0 **** 0.06
27516 C 50.43957013487835 43.16337025123257 55.77125463232352 C 0.0 **** -0.24
27517 H 51.020611382552545 43.801080890642474 55.103585646495446 H 0.0 **** 0.06
27518 H 50.48811200614497 42.13182676678414 55.42193200044579 H 0.0 **** 0.06
27519 H 49.4015542850982 43.49690682732573 55.77766086272047 H 0.0 **** 0.06
27520 H 50.848610394152814 43.22632015131268 56.779272930411196 H 0.0 **** 0.06
27521 C 71.5159734656782 16.53376592004054 89.17708793917868 C 0.0 **** -0.24
27522 H 70.83467907250395 15.80817971311279 89.62143145371672 H 0.0 **** 0.06
27523 H 72.0701635845802 16.062641798601202 88.36550620677681 H 0.0 **** 0.06
27524 H 72.21400901428484 16.88861082211112 89.936524655046 H 0.0 **** 0.06
27525 H 70.94481597332847 17.375510199295455 88.78711079956894 H 0.0 **** 0.06
27526 C 13.681968672790873 7.45809732455875 102.19859733617503 C 0.0 **** -0.24
27527 H 14.628368792810136 6.920333467131698 102.13530875773779 H 0.0 **** 0.06
27528 H 13.836312495332123 8.498858835020087 101.91449525030481 H 0.0 **** 0.06
27529 H 13.305407529266603 7.4121483430397745 103.22018331829213 H 0.0 **** 0.06
27530 H 12.959829691709615 7.000156583450078 101.52338843009615 H 0.0 **** 0.06
27531 C 63.19675979316264 43.27451184691628 7.285109191348949 C 0.0 **** -0.24
27532 H 63.2282474440149 43.31747119520699 8.373247283202002 H 0.0 **** 0.06
27533 H 64.15470071053102 43.60119596545046 6.880802099409763 H 0.0 **** 0.06
27534 H 62.40500134369887 43.92689854321095 6.918420433916912 H 0.0 **** 0.06
27535 H 62.99984544535923 42.25037882448609 6.968051075538035 H 0.0 **** 0.06
27536 C 8.92340814488275 110.28456524113304 29.014206481115338 C 0.0 **** -0.24
27537 H 9.101668249555384 110.94250315996317 28.163398272005963 H 0.0 **** 0.06
27538 H 9.723687547673787 109.54693744169795 29.076001915994027 H 0.0 **** 0.06
27539 H 7.968744787636632 109.77553939383884 28.88515586809865 H 0.0 **** 0.06
27540 H 8.900429702009102 110.87469493699145 29.930482368066947 H 0.0 **** 0.06
27541 C 63.13911416089333 88.78781041666542 88.2416664262787 C 0.0 **** -0.24
27542 H 62.76443595867174 88.17468459188552 89.06181919894809 H 0.0 **** 0.06
27543 H 63.86050140872143 89.5079360702673 88.6266144520532 H 0.0 **** 0.06
27544 H 62.30780183410823 89.31814777254277 87.77658289720014 H 0.0 **** 0.06
27545 H 63.62196145761369 88.14835895935062 87.5032134262351 H 0.0 **** 0.06
27546 C 62.08011356491343 43.89432792525895 105.21559654551157 C 0.0 **** -0.24
27547 H 61.108829399625705 43.67869726779202 104.77135675123026 H 0.0 **** 0.06
27548 H 61.93880867092025 44.417993108124165 106.1617172183046 H 0.0 **** 0.06
27549 H 62.65880375746289 44.52063818290932 104.53602923831306 H 0.0 **** 0.06
27550 H 62.61422261065724 42.96157206863677 105.3926262336256 H 0.0 **** 0.06
27551 C 110.0233059961204 53.335906301213065 108.29540203588745 C 0.0 **** -0.24
27552 H 109.07819221483088 52.81722276299907 108.13496240027808 H 0.0 **** 0.06
27553 H 110.27578118964254 53.30968923939487 109.35563904758148 H 0.0 **** 0.06
27554 H 109.92863831882636 54.371520443277376 107.96930555258504 H 0.0 **** 0.06
27555 H 110.80908007772368 52.84332240995649 107.72209427005826 H 0.0 **** 0.06
27556 C 36.02347313748723 85.85122512991316 27.395188106715352 C 0.0 **** -0.24
27557 H 36.08211906390727 86.87512696837814 27.764895094876465 H 0.0 **** 0.06
27558 H 37.02151972576138 85.5052951874863 27.12630888789991 H 0.0 **** 0.06
27559 H 35.37835302623253 85.82005248066736 26.516638214424034 H 0.0 **** 0.06
27560 H 35.61079486475538 85.20825030423464 28.171836999531934 H 0.0 **** 0.06
27561 C 28.684175023208752 58.256262160829124 93.16560350820299 C 0.0 **** -0.24
27562 H 28.24486661997326 57.31634097310746 92.82843892410645 H 0.0 **** 0.06
27563 H 28.740798086294504 58.25989866785892 94.25362836866356 H 0.0 **** 0.06
27564 H 28.063942479685082 59.08782372230894 92.8300568590364 H 0.0 **** 0.06
27565 H 29.68579730355372 58.35774722397986 92.74809047844712 H 0.0 **** 0.06
27566 C 83.08670081172691 73.36158010935024 69.90269140847136 C 0.0 **** -0.24
27567 H 82.04690234862686 73.53701428577172 69.6239878974302 H 0.0 **** 0.06
27568 H 83.73104271669617 74.0408267440239 69.34305655767253 H 0.0 **** 0.06
27569 H 83.35555720722395 72.3307745355404 69.67098105858781 H 0.0 **** 0.06
27570 H 83.21108429755091 73.53937285722813 70.9709222107083 H 0.0 **** 0.06
27571 C 19.257447768796624 16.421905488773803 19.760067239543304 C 0.0 **** -0.24
27572 H 19.330097689456323 16.91635400797935 18.79197058087027 H 0.0 **** 0.06
27573 H 19.967468012924712 16.87465892426343 20.45323115834114 H 0.0 **** 0.06
27574 H 19.486992674898573 15.362449686273806 19.64479316990949 H 0.0 **** 0.06
27575 H 18.24610892483051 16.53396880393575 20.149831352143906 H 0.0 **** 0.06
27576 C 99.9812882331513 75.35441804761695 110.00715339092247 C 0.0 **** -0.24
27577 H 99.39427841360407 74.81848095442473 109.26123820573962 H 0.0 **** 0.06
27578 H 99.3182472046584 75.96833992581105 110.6175787633292 H 0.0 **** 0.06
27579 H 100.70920301794976 75.99261505666311 109.50627596687103 H 0.0 **** 0.06
27580 H 100.50114411174894 74.63819380292767 110.64262659357574 H 0.0 **** 0.06
27581 C 42.830358517044125 46.55687839388514 43.22885055526109 C 0.0 **** -0.24
27582 H 43.90075975289254 46.73353847028869 43.32888005908359 H 0.0 **** 0.06
27583 H 42.63616202576429 46.01906062862065 42.30118019577884 H 0.0 **** 0.06
27584 H 42.30506850063716 47.51145500662983 43.21277562113238 H 0.0 **** 0.06
27585 H 42.480461575009855 45.96316472419039 44.07350301469799 H 0.0 **** 0.06
27586 C 26.03909811640372 94.16165146625731 82.50270005906486 C 0.0 **** -0.24
27587 H 26.937934676385566 94.13226383932262 81.88771168827009 H 0.0 **** 0.06
27588 H 25.889862690403163 95.17393914848081 82.88012431186252 H 0.0 **** 0.06
27589 H 26.14951239573 93.47384715644552 83.3415466001452 H 0.0 **** 0.06
27590 H 25.178008991525786 93.8673351988254 81.90190719820043 H 0.0 **** 0.06
27591 C 1.270519989252449 80.90735300036121 22.2858655274043 C 0.0 **** -0.24
27592 H 1.831718500743321 81.25262327352792 21.418390374008403 H 0.0 **** 0.06
27593 H 1.3070499610182083 79.8188333121042 22.332577624387007 H 0.0 **** 0.06
27594 H 0.2342546534921155 81.2338977568997 22.20071737013172 H 0.0 **** 0.06
27595 H 1.70949192901476 81.32523060317726 23.192436297421665 H 0.0 **** 0.06
27596 C 24.242542083698595 107.31438219086834 12.934339768658429 C 0.0 **** -0.24
27597 H 24.27883515800815 108.21448943487263 12.319218303004806 H 0.0 **** 0.06
27598 H 23.226958777710564 106.91772069828215 12.93713266565599 H 0.0 **** 0.06
27599 H 24.538895682210182 107.56035755902678 13.95415015823432 H 0.0 **** 0.06
27600 H 24.92434528501238 106.56892359226129 12.526736595119463 H 0.0 **** 0.06
27601 C 81.89071661631331 0.9509468055895756 50.09595152597345 C 0.0 **** -0.24
27602 H 80.89237910107687 1.3875324050370335 50.0616616657388 H 0.0 **** 0.06
27603 H 81.97456731860748 0.307730010545054 50.97259388992546 H 0.0 **** 0.06
27604 H 82.63292632636013 1.7480631626266074 50.15702461051515 H 0.0 **** 0.06
27605 H 82.06180050068794 0.3631741352801541 49.19481054216527 H 0.0 **** 0.06
27606 C 43.866519632091624 55.33009762041672 2.101630952901786 C 0.0 **** -0.24
27607 H 44.88316721273077 55.56938596432383 1.7882663217819754 H 0.0 **** 0.06
27608 H 43.30901969471512 54.933920051200175 1.2520929691766014 H 0.0 **** 0.06
27609 H 43.378101274403704 56.2321851587476 2.469841657946091 H 0.0 **** 0.06
27610 H 43.89869639766212 54.584070558136546 2.8953908701975877 H 0.0 **** 0.06
27611 C 101.63004445117299 42.34291141623214 23.96591289173844 C 0.0 **** -0.24
27612 H 101.07951699358917 42.03824132047686 24.856636907948484 H 0.0 **** 0.06
27613 H 102.17918726775935 43.2609353086134 24.175900682390363 H 0.0 **** 0.06
27614 H 100.93058876397036 42.51580346372327 23.148372310746396 H 0.0 **** 0.06
27615 H 102.33008876365788 41.55619455220119 23.68477754001293 H 0.0 **** 0.06
27616 C 6.806961237602849 11.388355454090473 34.22643051321529 C 0.0 **** -0.24
27617 H 6.632125515109749 11.853242082313429 35.19730924654783 H 0.0 **** 0.06
27618 H 6.107776975756309 10.56358892089564 34.087110339064736 H 0.0 **** 0.06
27619 H 7.828685378536619 11.011100987058683 34.18519470457329 H 0.0 **** 0.06
27620 H 6.660077840684977 12.127237683931583 33.43880442209371 H 0.0 **** 0.06
27621 C 92.6666189773918 60.43487716844692 90.15214082523556 C 0.0 **** -0.24
27622 H 92.68502271139562 59.375382493479094 89.89580917053149 H 0.0 **** 0.06
27623 H 93.64798546685364 60.871332312594376 89.96389809321931 H 0.0 **** 0.06
27624 H 92.41332521470446 60.549477472219564 91.20542688072248 H 0.0 **** 0.06
27625 H 91.91969985888667 60.94331136331769 89.54123728212824 H 0.0 **** 0.06
27626 C 43.502268367286604 61.12258816332786 15.492973091554077 C 0.0 **** -0.24
27627 H 44.219864436988644 61.88316991298922 15.18840170689137 H 0.0 **** 0.06
27628 H 43.87707709511429 60.600613362971615 16.373670716116578 H 0.0 **** 0.06
27629 H 43.36160124727789 60.40952171574423 14.681137201241569 H 0.0 **** 0.06
27630 H 42.54886675304596 61.59645579764174 15.729621485322994 H 0.0 **** 0.06
27631 C 108.26995433256302 71.73020355431568 21.254542031308887 C 0.0 **** -0.24
27632 H 108.08037807161492 72.78773363569852 21.06927316565492 H 0.0 **** 0.06
27633 H 109.15975875198659 71.62474048051759 21.876396735594767 H 0.0 **** 0.06
27634 H 108.4269149338206 71.21748450590015 20.304661408725508 H 0.0 **** 0.06
27635 H 107.41338830324237 71.29200142475393 21.767289645206148 H 0.0 **** 0.06
27636 C 80.33469170178441 47.69941343163076 18.136884716683426 C 0.0 **** -0.24
27637 H 80.3930065906938 47.01317090297927 17.292631755597142 H 0.0 **** 0.06
27638 H 79.2894812870847 47.868153769075924 18.397717021177073 H 0.0 **** 0.06
27639 H 80.79998944875692 48.647432122621524 17.867357148438003 H 0.0 **** 0.06
27640 H 80.85750689243764 47.268867973460026 18.99106470465665 H 0.0 **** 0.06
27641 C 90.92877866189346 64.54793019278333 70.13614772641651 C 0.0 **** -0.24
27642 H 90.98307902206501 64.34536364750161 71.20611401558187 H 0.0 **** 0.06
27643 H 90.01286914860793 64.11606849108892 69.73170510074972 H 0.0 **** 0.06
27644 H 91.79127328576911 64.10325708269522 69.63887773042627 H 0.0 **** 0.06
27645 H 90.9287417819634 65.62540713773654 69.96951933428986 H 0.0 **** 0.06
27646 C 10.146881266157745 104.5515355656933 110.29194434078596 C 0.0 **** -0.24
27647 H 10.867774818016052 105.02880149462898 109.62715990327219 H 0.0 **** 0.06
27648 H 9.199081600324615 105.08792885822739 110.24495932549017 H 0.0 **** 0.06
27649 H 10.526145781380858 104.5736304805823 111.31408467024636 H 0.0 **** 0.06
27650 H 9.996192469927959 103.51746538394566 109.98218751390608 H 0.0 **** 0.06
27651 C 67.5034874917386 77.26660881797628 76.60830507806153 C 0.0 **** -0.24
27652 H 66.8073480106939 77.78487239491278 77.26691511271224 H 0.0 **** 0.06
27653 H 66.96722965407824 76.51056737017547 76.03538939915245 H 0.0 **** 0.06
27654 H 68.27982589855014 76.78680068762338 77.20524766823547 H 0.0 **** 0.06
27655 H 67.96197508318964 77.98329368969317 75.92718140442457 H 0.0 **** 0.06
27656 C 21.5578546109478 97.03955369825881 100.80196705958177 C 0.0 **** -0.24
27657 H 22.294689918199026 97.77955311837992 100.48981463768934 H 0.0 **** 0.06
27658 H 20.738723135554295 97.53907830327717 101.31965458292079 H 0.0 **** 0.06
27659 H 22.0272931480107 96.32020504891148 101.4729175267894 H 0.0 **** 0.06
27660 H 21.171184944496673 96.52018790827012 99.92513338165739 H 0.0 **** 0.06
27661 C 115.21088548497409 22.734949326589515 93.74033798813292 C 0.0 **** -0.24
27662 H 114.18546739385516 22.455787096636698 93.98069540899505 H 0.0 **** 0.06
27663 H 115.75510284380027 21.8549313333221 93.39610927261393 H 0.0 **** 0.06
27664 H 115.69650010126304 23.138210993632867 94.62949662416835 H 0.0 **** 0.06
27665 H 115.20682164862654 23.489894498264675 92.95408622828745 H 0.0 **** 0.06
27666 C 21.3199389340987 11.450539595380235 94.3676678757559 C 0.0 **** -0.24
27667 H 22.233861033419515 12.044867950267104 94.35919541373494 H 0.0 **** 0.06
27668 H 20.902406882264216 11.412885835623399 93.36135095126946 H 0.0 **** 0.06
27669 H 20.596710581158845 11.906501897850234 95.04485600645253 H 0.0 **** 0.06
27670 H 21.547547096060896 10.439723105324276 94.70496308454918 H 0.0 **** 0.06
27671 C 39.778695248962265 60.315524568847366 95.27740626636833 C 0.0 **** -0.24
27672 H 39.634043503875034 59.81019513085988 94.3232351561777 H 0.0 **** 0.06
27673 H 40.84259846710751 60.34707343925896 95.51347234679389 H 0.0 **** 0.06
27674 H 39.24815339691855 59.773692509600096 96.06048284385125 H 0.0 **** 0.06
27675 H 39.39097352808557 61.333141445086824 95.21234915051792 H 0.0 **** 0.06
27676 C 55.892801070350124 110.65531645322542 54.05735021390234 C 0.0 **** -0.24
27677 H 56.71334583704578 111.00819114338728 54.68248005753338 H 0.0 **** 0.06
27678 H 55.38435798584598 111.50936468430982 53.609842887610284 H 0.0 **** 0.06
27679 H 55.18840921930248 110.09100441046208 54.66735145484236 H 0.0 **** 0.06
27680 H 56.28722918482663 110.0132544266117 53.26936835722876 H 0.0 **** 0.06
27681 C 13.186327045345706 34.829627778004806 64.58779601634927 C 0.0 **** -0.24
27682 H 13.141686540486432 33.92966293238396 65.20062880061846 H 0.0 **** 0.06
27683 H 14.209345078566912 34.98801362814612 64.2474277654893 H 0.0 **** 0.06
27684 H 12.862387658984375 35.6870393390314 65.1782376119362 H 0.0 **** 0.06
27685 H 12.529449739727681 34.713969899619485 63.72503238793246 H 0.0 **** 0.06
27686 C 2.745159431740433 99.72827989099301 5.621640222469011 C 0.0 **** -0.24
27687 H 2.9118244228826935 98.814865087734 5.051277449230213 H 0.0 **** 0.06
27688 H 2.794467274930444 99.50419983792108 6.688483028947047 H 0.0 **** 0.06
27689 H 1.7613938240467224 100.13257969733752 5.380761588007232 H 0.0 **** 0.06
27690 H 3.511844780117867 100.45999536102931 5.368402076711135 H 0.0 **** 0.06
27691 C 98.00133016549336 42.85212553498216 102.99810541764296 C 0.0 **** -0.24
27692 H 97.85486701474038 43.81918204442538 102.51863412711305 H 0.0 **** 0.06
27693 H 97.60348385694573 42.06486623048816 102.3567032557124 H 0.0 **** 0.06
27694 H 97.47973338599327 42.83872436130922 103.9548936589153 H 0.0 **** 0.06
27695 H 99.06567300084467 42.68442764412671 103.16126261180523 H 0.0 **** 0.06
27696 C 96.96231268821494 71.33743688694149 110.20418311189334 C 0.0 **** -0.24
27697 H 95.93079591761764 71.18640703073696 109.88504407972906 H 0.0 **** 0.06
27698 H 97.2387672957396 70.55911676155125 110.91543565901256 H 0.0 **** 0.06
27699 H 97.05485651106845 72.31423654240166 110.67981603237361 H 0.0 **** 0.06
27700 H 97.62176079027483 71.2899208794001 109.33768961818606 H 0.0 **** 0.06
27701 C 43.69139101605163 98.26235221768742 87.95552862055075 C 0.0 **** -0.24
27702 H 43.270721969127834 98.11754147881398 86.96046231308208 H 0.0 **** 0.06
27703 H 44.753435603319495 98.01822764457432 87.93965336694549 H 0.0 **** 0.06
27704 H 43.179161751497695 97.61193880269465 88.66481639513796 H 0.0 **** 0.06
27705 H 43.56256479222366 99.30243578877617 88.25658438718966 H 0.0 **** 0.06
27706 C 24.63625830797271 19.290705372220046 9.253765530755203 C 0.0 **** -0.24
27707 H 24.490596291525968 19.33866863073655 10.33266665006876 H 0.0 **** 0.06
27708 H 25.56596299109657 18.76408607081717 9.034911809159013 H 0.0 **** 0.06
27709 H 24.68843973093484 20.30178624886966 8.849198914453837 H 0.0 **** 0.06
27710 H 23.80143580134927 18.75994275331817 8.797762359526217 H 0.0 **** 0.06
27711 C 10.53617874017246 97.75924349898781 86.45650316168587 C 0.0 **** -0.24
27712 H 11.214975507265763 97.11149725604031 85.90244787272516 H 0.0 **** 0.06
27713 H 10.441825525177137 98.71351432165847 85.93875786414907 H 0.0 **** 0.06
27714 H 10.930568592356224 97.92640450533236 87.45911097685659 H 0.0 **** 0.06
27715 H 9.557695218723467 97.28467998618538 86.52602286345503 H 0.0 **** 0.06
27716 C 90.71716374541381 57.76264060845449 79.8876066754463 C 0.0 **** -0.24
27717 H 90.210879968109 57.5865873028382 80.83670441786586 H 0.0 **** 0.06
27718 H 91.77422011456127 57.95547641343461 80.0705239621563 H 0.0 **** 0.06
27719 H 90.26997765189361 58.62367402628246 79.39162425375008 H 0.0 **** 0.06
27720 H 90.61345407769602 56.88245711763841 79.25219031926457 H 0.0 **** 0.06
27721 C 29.508931409354773 26.316627588132377 95.14308797146316 C 0.0 **** -0.24
27722 H 30.55871802181599 26.535611584148512 95.33741144629022 H 0.0 **** 0.06
27723 H 29.243959184363916 26.664458005388127 94.14451835030036 H 0.0 **** 0.06
27724 H 28.88916111283106 26.823558076550256 95.88193013989189 H 0.0 **** 0.06
27725 H 29.345190999063163 25.239837278418634 95.20832906229492 H 0.0 **** 0.06
27726 C 57.24333311233066 20.47003519071427 13.179013376697554 C 0.0 **** -0.24
27727 H 56.82152853905933 19.809890710805178 12.420876355245753 H 0.0 **** 0.06
27728 H 57.021504179377644 20.071645637271047 14.170115975817552 H 0.0 **** 0.06
27729 H 56.80689657393485 21.463480470439038 13.079403465072033 H 0.0 **** 0.06
27730 H 58.32327282400142 20.531975607232425 13.04539021226607 H 0.0 **** 0.06
27731 C 58.74109122603198 113.34598925172253 23.63631209153587 C 0.0 **** -0.24
27732 H 58.26986522274018 114.29653272218827 23.885754874537213 H 0.0 **** 0.06
27733 H 58.22557668384698 112.53772567338288 24.15659700584203 H 0.0 **** 0.06
27734 H 59.78624508355699 113.36735049251071 23.943013241610515 H 0.0 **** 0.06
27735 H 58.68185176342041 113.18211531402808 22.560396404988694 H 0.0 **** 0.06
27736 C 15.908253158561493 39.780537551755316 73.71194399192086 C 0.0 **** -0.24
27737 H 16.1580066092516 40.708183680600655 74.22743740415808 H 0.0 **** 0.06
27738 H 16.178135355466793 39.8653368867311 72.65869221832293 H 0.0 **** 0.06
27739 H 14.838347579438903 39.59218225219591 73.79968152095574 H 0.0 **** 0.06
27740 H 16.46020015059767 38.95510404770363 74.16314093964525 H 0.0 **** 0.06
27741 C 39.89149423508832 1.3103277794211206 5.772705265928209 C 0.0 **** -0.24
27742 H 39.86704787138697 2.1091815685392827 5.031379719427477 H 0.0 **** 0.06
27743 H 39.15559264913293 1.513985705401426 6.550696185022076 H 0.0 **** 0.06
27744 H 40.88577196949282 1.258569839657115 6.2176474210210415 H 0.0 **** 0.06
27745 H 39.659501838831375 0.3610269285140646 5.2914663540522895 H 0.0 **** 0.06
27746 C 74.09217194653196 3.682365381459883 94.5844583591516 C 0.0 **** -0.24
27747 H 74.658364833835 2.816752700661505 94.24042658463094 H 0.0 **** 0.06
27748 H 73.67944627185392 4.21007835757341 93.72437806491473 H 0.0 **** 0.06
27749 H 74.75193770111694 4.350083074390087 95.13821892826275 H 0.0 **** 0.06
27750 H 73.28131609908829 3.3520183826452143 95.23196904104492 H 0.0 **** 0.06
27751 C 13.558256240118197 89.0162685245711 25.910273020454284 C 0.0 **** -0.24
27752 H 12.672139227237011 88.6945526277189 26.457487857553815 H 0.0 **** 0.06
27753 H 13.493935382072038 88.66716245955777 24.878849520678358 H 0.0 **** 0.06
27754 H 14.447233291802263 88.59711886834985 26.38120709344149 H 0.0 **** 0.06
27755 H 13.618628745771602 90.1043801804027 25.922950619146746 H 0.0 **** 0.06
27756 C 13.187004000488884 26.90232296348603 82.60008886957979 C 0.0 **** -0.24
27757 H 13.524603013329141 27.45763164973181 81.72459828442396 H 0.0 **** 0.06
27758 H 13.189250035448396 27.55912664488585 83.46957457601724 H 0.0 **** 0.06
27759 H 13.857305480338766 26.061738759810225 82.77597407058977 H 0.0 **** 0.06
27760 H 12.176042479796678 26.5314427757923 82.42661456493494 H 0.0 **** 0.06
27761 C 12.370711530232853 81.04653256809512 35.70004802901002 C 0.0 **** -0.24
27762 H 12.427695883407708 81.73603167534282 34.85839652277656 H 0.0 **** 0.06
27763 H 13.320933648766985 80.52217328478139 35.80529948941336 H 0.0 **** 0.06
27764 H 11.574261667256746 80.32317318295533 35.52433123978807 H 0.0 **** 0.06
27765 H 12.160610825682475 81.60329695842692 36.61283749919181 H 0.0 **** 0.06
27766 C 101.87002402539542 21.72348057715697 7.853786474682863 C 0.0 **** -0.24
27767 H 102.2648276580129 22.61475208852546 7.365006567311269 H 0.0 **** 0.06
27768 H 100.84874019348047 21.913535764015627 8.184040802185052 H 0.0 **** 0.06
27769 H 102.49195781716173 21.476679597325482 8.71527140755424 H 0.0 **** 0.06
27770 H 101.87606726087603 20.8908728410699 7.151112062247819 H 0.0 **** 0.06
27771 C 79.82441233745597 105.20556051718427 29.228061064960656 C 0.0 **** -0.24
27772 H 80.89758750569231 105.34395862739343 29.10351999960028 H 0.0 **** 0.06
27773 H 79.29300733399418 105.78236295593345 28.470361067882806 H 0.0 **** 0.06
27774 H 79.52637624102186 105.54603756079054 30.22021552874979 H 0.0 **** 0.06
27775 H 79.57814457463495 104.1486460429948 29.11792189598286 H 0.0 **** 0.06
27776 C 113.58509389769632 100.4680153970348 34.30041876835463 C 0.0 **** -0.24
27777 H 113.08741036273213 100.25140739297694 35.245875614614306 H 0.0 **** 0.06
27778 H 113.60429616819427 99.56813634018107 33.68495345001321 H 0.0 **** 0.06
27779 H 114.6062696457782 100.798067417602 34.49465158381051 H 0.0 **** 0.06
27780 H 113.04230564375123 101.25544558263067 33.77719492824309 H 0.0 **** 0.06
27781 C 82.1845773656045 57.950331798739825 104.75115921374112 C 0.0 **** -0.24
27782 H 83.25264601257894 57.73436961396425 104.73919163205733 H 0.0 **** 0.06
27783 H 81.98293481445317 58.81705310678262 104.12198834011701 H 0.0 **** 0.06
27784 H 81.86813593703509 58.16039611134201 105.77211527367695 H 0.0 **** 0.06
27785 H 81.6361076167737 57.088707016993595 104.37109053632668 H 0.0 **** 0.06
27786 C 15.438559390201476 113.45642567413881 35.1725452000648 C 0.0 **** -0.24
27787 H 15.75132696595928 112.67943873380082 35.870354137453205 H 0.0 **** 0.06
27788 H 16.1704115721529 114.26517810774 35.178671482476375 H 0.0 **** 0.06
27789 H 14.465344213033134 113.84454124700878 35.47300330453419 H 0.0 **** 0.06
27790 H 15.368119332251808 113.03715426520259 34.16898741633753 H 0.0 **** 0.06
27791 C 111.75266287850573 26.232842806888414 59.17026272466299 C 0.0 **** -0.24
27792 H 111.07654949246368 26.476346302923105 59.990039713210024 H 0.0 **** 0.06
27793 H 112.6330476632549 26.872946611973134 59.22279151031839 H 0.0 **** 0.06
27794 H 111.24409809451286 26.390790609094438 58.21952991734527 H 0.0 **** 0.06
27795 H 112.05676374041161 25.188546245971054 59.24989302698259 H 0.0 **** 0.06
27796 C 26.562159453941184 95.73501356898265 109.04166372158934 C 0.0 **** -0.24
27797 H 25.999689667990012 96.51258487686823 108.52368667318616 H 0.0 **** 0.06
27798 H 27.28693627496557 96.19740652736857 109.71205233288357 H 0.0 **** 0.06
27799 H 27.08380911132278 95.116417567736 108.31239758952536 H 0.0 **** 0.06
27800 H 25.876095633586694 95.11581838933307 109.62047748732502 H 0.0 **** 0.06
27801 C 105.76756932496403 90.24685134285808 93.18616589860153 C 0.0 **** -0.24
27802 H 104.74189245655279 90.44032511434166 92.87196306723632 H 0.0 **** 0.06
27803 H 106.20475537025749 89.48018768711852 92.54733204463244 H 0.0 **** 0.06
27804 H 105.77163689994381 89.90413017388325 94.2208475915757 H 0.0 **** 0.06
27805 H 106.35066118525378 91.16399757557711 93.10616469119327 H 0.0 **** 0.06
27806 C 72.25466503496415 72.62827975623637 3.5783401030060364 C 0.0 **** -0.24
27807 H 72.02789322669321 72.19440062959816 4.551033206781378 H 0.0 **** 0.06
27808 H 72.92030796461489 71.96292290000022 3.028967488941161 H 0.0 **** 0.06
27809 H 72.74015808505129 73.5949535827784 3.716542242754821 H 0.0 **** 0.06
27810 H 71.3301429499167 72.76377673407771 3.0162154787222573 H 0.0 **** 0.06
27811 C 93.37120398630736 56.11038260272524 72.35848634212176 C 0.0 **** -0.24
27812 H 93.89776237875355 55.78110811377687 73.25419394915451 H 0.0 **** 0.06
27813 H 92.34142235721356 56.36002303133775 72.61547865223524 H 0.0 **** 0.06
27814 H 93.37742521568089 55.31064958871358 71.61857966001527 H 0.0 **** 0.06
27815 H 93.86670706855176 56.99029055589739 71.94860193834812 H 0.0 **** 0.06
27816 C 109.82833015566271 108.11046915201939 8.13050502989634 C 0.0 **** -0.24
27817 H 109.83245739821137 108.59683061587896 9.10660549431556 H 0.0 **** 0.06
27818 H 110.3290114926909 108.74958358296044 7.4036601633088 H 0.0 **** 0.06
27819 H 108.79907041619677 107.93865853688101 7.815658955088679 H 0.0 **** 0.06
27820 H 110.3513457555641 107.15618305125429 8.197693641093764 H 0.0 **** 0.06
27821 C 8.334846705370083 67.71939492028146 38.85909533389952 C 0.0 **** -0.24
27822 H 7.393012910317523 67.61916636962245 39.39859129968954 H 0.0 **** 0.06
27823 H 8.982210695360067 66.8749734009518 39.09750415382217 H 0.0 **** 0.06
27824 H 8.82414014988808 68.64782278986793 39.15467985217754 H 0.0 **** 0.06
27825 H 8.139603192209535 67.73708618771153 37.78723876762558 H 0.0 **** 0.06
27826 C 50.365461644171944 51.52960018051874 9.210568924339054 C 0.0 **** -0.24
27827 H 50.11112441168535 52.56666048363596 8.990543739726476 H 0.0 **** 0.06
27828 H 51.29558968778025 51.269017801705075 8.704797985350268 H 0.0 **** 0.06
27829 H 49.56612387065576 50.87805749368712 8.86134886230439 H 0.0 **** 0.06
27830 H 50.49112326314031 51.407497436931806 10.286296408206145 H 0.0 **** 0.06
27831 C 37.32551870894865 63.661531663211335 21.148272173146836 C 0.0 **** -0.24
27832 H 36.710460222499 63.764569134110204 22.042955337248628 H 0.0 **** 0.06
27833 H 38.298547301121204 64.12119836999248 21.32342487455898 H 0.0 **** 0.06
27834 H 36.83488882619642 64.15753485860603 20.311118261496034 H 0.0 **** 0.06
27835 H 37.457794104214706 62.60425614124968 20.91943768854361 H 0.0 **** 0.06
27836 C 101.57283544769558 40.55350853783739 42.72190423399036 C 0.0 **** -0.24
27837 H 100.9610992680702 40.542523106271375 43.62343774097394 H 0.0 **** 0.06
27838 H 101.42233311402208 41.494629588150644 42.19329875519837 H 0.0 **** 0.06
27839 H 101.28441253794654 39.72369745104609 42.07642506514486 H 0.0 **** 0.06
27840 H 102.62290613010589 40.45345659822695 42.995214832197036 H 0.0 **** 0.06
27841 C 60.85060341168992 26.860277748241685 11.220524819947737 C 0.0 **** -0.24
27842 H 61.83542949323646 27.194047924307654 10.892379026402224 H 0.0 **** 0.06
27843 H 60.692308762987125 27.161694373556713 12.256764399982316 H 0.0 **** 0.06
27844 H 60.79071044982277 25.77457902298761 11.144480979010421 H 0.0 **** 0.06
27845 H 60.08495992010256 27.311185916538534 10.589398519400678 H 0.0 **** 0.06
27846 C 102.93853256688675 80.99522025654458 26.641888726008744 C 0.0 **** -0.24
27847 H 102.5561314825715 80.02142433949281 26.337199648951128 H 0.0 **** 0.06
27848 H 102.56267144965105 81.23705859955537 27.63610208191929 H 0.0 **** 0.06
27849 H 102.60740037380234 81.753856254262 25.93295683336141 H 0.0 **** 0.06
27850 H 104.02854163945497 80.96721436510632 26.66222379382682 H 0.0 **** 0.06
27851 C 58.027239637534024 8.871811918350119 110.3775821100516 C 0.0 **** -0.24
27852 H 58.42623710271356 7.864207771440135 110.26365484103215 H 0.0 **** 0.06
27853 H 58.29717071910237 9.260872348828144 111.35932634554669 H 0.0 **** 0.06
27854 H 56.94207564806295 8.84655369962681 110.28160995677041 H 0.0 **** 0.06
27855 H 58.44482367320634 9.516349471538717 109.60411235148004 H 0.0 **** 0.06
27856 C 69.53409742085739 37.678348138891664 60.00998692782446 C 0.0 **** -0.24
27857 H 70.30798355812607 38.19143800661773 60.580446005110105 H 0.0 **** 0.06
27858 H 69.51251509557267 36.6260998678257 60.293098776278725 H 0.0 **** 0.06
27859 H 69.75120084791433 37.764233522474385 58.944598059826376 H 0.0 **** 0.06
27860 H 68.56620662864856 38.132083828841786 60.22110737751274 H 0.0 **** 0.06
27861 C 52.2636975473369 37.406307692664484 70.69888153960667 C 0.0 **** -0.24
27862 H 53.327362561569274 37.52128332908609 70.90988853684921 H 0.0 **** 0.06
27863 H 51.68256968164688 37.87719503207913 71.4925578863012 H 0.0 **** 0.06
27864 H 52.01620848652353 36.34646263351897 70.64624957730702 H 0.0 **** 0.06
27865 H 52.03020896654811 37.881742581889114 69.74615371330401 H 0.0 **** 0.06
27866 C 100.73544776936262 92.84957575999334 103.97888670770527 C 0.0 **** -0.24
27867 H 101.02498445969735 93.80908129839162 104.40798600814436 H 0.0 **** 0.06
27868 H 99.70243253582134 92.62806285756605 104.2472001808986 H 0.0 **** 0.06
27869 H 101.38820728933104 92.06616703452124 104.36592213036502 H 0.0 **** 0.06
27870 H 100.82672654332106 92.89486950541553 102.8936188969189 H 0.0 **** 0.06
27871 C 82.80123558118157 67.49182650297439 12.379925710275131 C 0.0 **** -0.24
27872 H 82.3674005136466 66.49235779136859 12.374736275620364 H 0.0 **** 0.06
27873 H 83.42310584896887 67.61327032444262 13.267512545148946 H 0.0 **** 0.06
27874 H 82.00283879104097 68.23381973961011 12.391290455540968 H 0.0 **** 0.06
27875 H 83.41062271332089 67.62839065500765 11.487039345089784 H 0.0 **** 0.06
27876 C 69.44437760137146 37.96050967769156 86.56104303676398 C 0.0 **** -0.24
27877 H 69.61223548471524 39.03620920073266 86.60705154242589 H 0.0 **** 0.06
27878 H 69.97310180232958 37.47595978131682 87.38228521158226 H 0.0 **** 0.06
27879 H 69.81684694028228 37.575262041615446 85.61168144938438 H 0.0 **** 0.06
27880 H 68.37736939596688 37.75551086295809 86.64325303286654 H 0.0 **** 0.06
27881 C 31.032038422115846 3.9944174131931476 108.67416950943877 C 0.0 **** -0.24
27882 H 31.61069208960933 4.140687126401133 109.58679961883018 H 0.0 **** 0.06
27883 H 30.1194108045069 3.445617163638971 108.90777751992152 H 0.0 **** 0.06
27884 H 31.623989225907152 3.426503271411889 107.9560293008814 H 0.0 **** 0.06
27885 H 30.77443050725452 4.9636840943841065 108.24818738368297 H 0.0 **** 0.06
27886 C 73.41589571810044 73.58912868279498 75.6802688671508 C 0.0 **** -0.24
27887 H 74.08483571568098 73.95426714307195 74.90096742390273 H 0.0 **** 0.06
27888 H 73.970480642472 73.47834196375123 76.61286443987393 H 0.0 **** 0.06
27889 H 73.00540156807659 72.62365254624268 75.38354682502762 H 0.0 **** 0.06
27890 H 72.60260963094088 74.30076756335797 75.82287813706358 H 0.0 **** 0.06
27891 C 76.44694146924267 100.03845999857182 42.13423480742398 C 0.0 **** -0.24
27892 H 77.30654295832944 100.69431828367567 42.00013527736252 H 0.0 **** 0.06
27893 H 76.34498221298905 99.3904599562145 41.26359778718279 H 0.0 **** 0.06
27894 H 75.54528182435176 100.64098921931853 42.24672040715569 H 0.0 **** 0.06
27895 H 76.59085661526105 99.42947717930275 43.026614715292 H 0.0 **** 0.06
27896 C 1.920510114885829 43.66018284582853 80.71127964211517 C 0.0 **** -0.24
27897 H 1.1953818033661037 43.21673917375787 80.02797570752497 H 0.0 **** 0.06
27898 H 2.8495255903387715 43.85845522400501 80.17513230873111 H 0.0 **** 0.06
27899 H 2.1147736715630714 42.969418149123726 81.53215258840274 H 0.0 **** 0.06
27900 H 1.5222478248106768 44.593420706402554 81.10726789764603 H 0.0 **** 0.06
27901 C 3.814491569474768 51.94910974441214 99.33035803489355 C 0.0 **** -0.24
27902 H 4.099794351937831 52.985187750834086 99.14945416143081 H 0.0 **** 0.06
27903 H 3.668611861894206 51.79389509110317 100.39977756399043 H 0.0 **** 0.06
27904 H 4.60236696397881 51.2879012980336 98.97079683341767 H 0.0 **** 0.06
27905 H 2.8867368487445475 51.73047192814329 98.80053325009683 H 0.0 **** 0.06
27906 C 69.88700580205129 77.00204556022493 115.8590698843422 C 0.0 **** -0.24
27907 H 69.51963390745998 76.46411815855885 114.98569167318506 H 0.0 **** 0.06
27908 H 69.89641212841337 78.07195691636093 115.64990537844358 H 0.0 **** 0.06
27909 H 70.8988235445262 76.66930524440147 116.09199332428723 H 0.0 **** 0.06
27910 H 69.2347529316966 76.80306374561093 116.7098612974038 H 0.0 **** 0.06
27911 C 62.9127515598081 9.678253596938248 104.50562656395839 C 0.0 **** -0.24
27912 H 62.35251603159088 10.61341672171423 104.49178226626216 H 0.0 **** 0.06
27913 H 62.78101369593759 9.16290598934458 103.55480982584751 H 0.0 **** 0.06
27914 H 62.54582776761009 9.047627458862337 105.31584579182733 H 0.0 **** 0.06
27915 H 63.96987529897359 9.891231597404698 104.66210749929225 H 0.0 **** 0.06
27916 C 9.619770454114395 71.74727074406422 9.46852763199482 C 0.0 **** -0.24
27917 H 9.207059581844788 71.46119256459446 8.500380100040758 H 0.0 **** 0.06
27918 H 9.21316425198718 71.09624085243036 10.24254057758004 H 0.0 **** 0.06
27919 H 9.352404517429466 72.78083289440565 9.685341409549977 H 0.0 **** 0.06
27920 H 10.705321522347123 71.64947002255565 9.44341826144477 H 0.0 **** 0.06
27921 C 28.755638621439687 100.44438588998472 27.530411969905344 C 0.0 **** -0.24
27922 H 27.90559499317851 100.52685009485145 26.85284938258124 H 0.0 **** 0.06
27923 H 29.40278444241011 101.3129541959704 27.408346664797193 H 0.0 **** 0.06
27924 H 29.31550003911184 99.53755050796241 27.30019169167406 H 0.0 **** 0.06
27925 H 28.396967347721272 100.39940815106485 28.55868696702899 H 0.0 **** 0.06
27926 C 32.2226417798131 95.35697183688916 62.898153532934074 C 0.0 **** -0.24
27927 H 31.41295387348589 95.00249932532549 63.53478309423372 H 0.0 **** 0.06
27928 H 32.47429766260251 94.5873846890415 62.16780529826103 H 0.0 **** 0.06
27929 H 33.09782969180699 95.57574419574445 63.51045359280231 H 0.0 **** 0.06
27930 H 31.9071718004993 96.26187036340346 62.378155513311455 H 0.0 **** 0.06
27931 C 93.63309906144454 58.760777650776404 40.79677627889916 C 0.0 **** -0.24
27932 H 93.15047376874205 58.7974816139252 39.82012014611033 H 0.0 **** 0.06
27933 H 94.07680580539824 59.73147114808451 41.01949818906468 H 0.0 **** 0.06
27934 H 94.41115470050127 57.998092948514895 40.78963729185557 H 0.0 **** 0.06
27935 H 92.8918251102881 58.51624843979569 41.558482276401776 H 0.0 **** 0.06
27936 C 34.8364849762624 79.24904418037704 29.138396148493143 C 0.0 **** -0.24
27937 H 33.82220828031211 78.85170919654993 29.110589509374506 H 0.0 **** 0.06
27938 H 34.8170982719563 80.31226095895322 28.899920222329172 H 0.0 **** 0.06
27939 H 35.4528554768832 78.72282000166466 28.409776870992232 H 0.0 **** 0.06
27940 H 35.253241730404284 79.10761735302367 30.135660818203178 H 0.0 **** 0.06
27941 C 102.52619350349292 65.47391729234585 30.4906101015103 C 0.0 **** -0.24
27942 H 103.32741399871531 65.95622510234057 29.92878221923337 H 0.0 **** 0.06
27943 H 102.91032700219691 64.57298668735166 30.96966655950088 H 0.0 **** 0.06
27944 H 101.71671510106279 65.20870730437011 29.812024943399265 H 0.0 **** 0.06
27945 H 102.15331344113318 66.1604175725439 31.251011576367546 H 0.0 **** 0.06
27946 C 112.30812449490091 13.944441809700152 70.69609978033577 C 0.0 **** -0.24
27947 H 112.3122043580826 14.802392151995917 70.0226198562379 H 0.0 **** 0.06
27948 H 112.33009886957686 14.294914591244577 71.72887643332308 H 0.0 **** 0.06
27949 H 113.18571904173336 13.327787244345956 70.50301303651821 H 0.0 **** 0.06
27950 H 111.40583393123944 13.356159765617662 70.52990557567728 H 0.0 **** 0.06
27951 C 80.80819599032822 46.06581126959668 81.3404732712386 C 0.0 **** -0.24
27952 H 79.83254088793103 46.0987125646719 81.82473987734798 H 0.0 **** 0.06
27953 H 81.35794577942431 45.191675759114815 81.69028445905705 H 0.0 **** 0.06
27954 H 81.36591802339166 46.96948108575384 81.58827481851259 H 0.0 **** 0.06
27955 H 80.67512923477346 46.00547792151025 80.260331300468 H 0.0 **** 0.06
27956 C 34.044528274528076 44.9666125225211 28.856222365541043 C 0.0 **** -0.24
27957 H 33.44165924228659 45.870330997232514 28.768487603240857 H 0.0 **** 0.06
27958 H 34.125159476523564 44.48649524444778 27.880504877784205 H 0.0 **** 0.06
27959 H 33.5727324538083 44.281790821507684 29.560704786997775 H 0.0 **** 0.06
27960 H 35.04018265643916 45.229271082840626 29.215744924288174 H 0.0 **** 0.06
27961 C 64.18995355092619 41.5573314905112 59.6256649773658 C 0.0 **** -0.24
27962 H 64.53304293293007 41.06512353799155 60.53519535708898 H 0.0 **** 0.06
27963 H 64.23633602460706 42.638358305591126 59.75888009995296 H 0.0 **** 0.06
27964 H 63.16193201527324 41.260595597320574 59.41686816866371 H 0.0 **** 0.06
27965 H 64.8290323826393 41.26601055282626 58.792089597304255 H 0.0 **** 0.06
27966 C 3.3383927567672487 63.75946322717655 4.092407537372091 C 0.0 **** -0.24
27967 H 2.3858267951376178 63.93266395263582 3.5912965978063465 H 0.0 **** 0.06
27968 H 4.135899195611202 64.25169012109687 3.536351168900314 H 0.0 **** 0.06
27969 H 3.534209850219341 62.689458827330526 4.140487263811231 H 0.0 **** 0.06
27970 H 3.2944202821759347 64.16642997217924 5.103213706369111 H 0.0 **** 0.06
27971 C 62.866388770990994 107.14788273477919 48.313306669534654 C 0.0 **** -0.24
27972 H 63.355589539473044 108.11390986807241 48.187454554385454 H 0.0 **** 0.06
27973 H 62.87248555509541 106.874021589203 49.369265745026325 H 0.0 **** 0.06
27974 H 63.40209668313071 106.39198168355713 47.73844387764342 H 0.0 **** 0.06
27975 H 61.83762481464902 107.21214666939828 47.9604492480305 H 0.0 **** 0.06
27976 C 25.64591151964146 16.478909865324923 98.97403813408448 C 0.0 **** -0.24
27977 H 26.249521689749486 15.88051467512544 98.29181199934729 H 0.0 **** 0.06
27978 H 24.761836588272672 16.843882503199467 98.4524032283463 H 0.0 **** 0.06
27979 H 26.23341699433803 17.325628866795086 99.3310827919322 H 0.0 **** 0.06
27980 H 25.341255499791316 15.864703749504855 99.82207361389482 H 0.0 **** 0.06
27981 C 64.25581539594435 1.3202009000798398 9.40632388107943 C 0.0 **** -0.24
27982 H 64.09869090623499 1.5588255947301946 10.458049931128443 H 0.0 **** 0.06
27983 H 65.23022062266551 1.6951288933825879 9.090816207309729 H 0.0 **** 0.06
27984 H 63.47521705258174 1.7874523175437957 8.807096198648168 H 0.0 **** 0.06
27985 H 64.22093556289386 0.23963337338790325 9.270166873768574 H 0.0 **** 0.06
27986 C 78.74533073965085 100.39658855239571 61.61098513176108 C 0.0 **** -0.24
27987 H 78.00823132419339 99.67738878321238 61.96695374127545 H 0.0 **** 0.06
27988 H 79.73839909786 100.09413504156649 61.94552623220348 H 0.0 **** 0.06
27989 H 78.51161293852107 101.38402223242136 62.00908847637737 H 0.0 **** 0.06
27990 H 78.72365570300417 100.42885287606867 60.521013644721734 H 0.0 **** 0.06
27991 C 43.70261273585041 55.037693087596466 52.13006852195247 C 0.0 **** -0.24
27992 H 43.02924023732899 55.818565359823054 51.77661622268396 H 0.0 **** 0.06
27993 H 44.612657781818015 55.04486071637399 51.52921557886631 H 0.0 **** 0.06
27994 H 43.214494004478865 54.06771098701668 52.03735195867131 H 0.0 **** 0.06
27995 H 43.954530886368275 55.219994376852526 53.174149441005085 H 0.0 **** 0.06
27996 C 61.86611297072304 94.40127768083886 8.251102167761616 C 0.0 **** -0.24
27997 H 62.70919648636625 95.01637480079114 8.56443621935604 H 0.0 **** 0.06
27998 H 61.53363053880638 93.7871007136701 9.088171853623237 H 0.0 **** 0.06
27999 H 62.171498431975024 93.75790827959227 7.426026366289335 H 0.0 **** 0.06
28000 H 61.048114393115426 95.04510378652398 7.926011571327365 H 0.0 **** 0.06
28001 C 38.20799170661439 108.52265431926867 83.29088423299459 C 0.0 **** -0.24
28002 H 38.83861235135663 108.18552184693377 82.46949045731651 H 0.0 **** 0.06
28003 H 37.3329604313972 109.03505233734575 82.8899725950505 H 0.0 **** 0.06
28004 H 38.770711112698706 109.20780329736331 83.92460836731735 H 0.0 **** 0.06
28005 H 37.88782887423642 107.66374255137998 83.8800173630255 H 0.0 **** 0.06
28006 C 50.84301961238991 99.78734816423194 89.9152020899399 C 0.0 **** -0.24
28007 H 50.87163646412333 100.46031640599793 89.05797668177172 H 0.0 **** 0.06
28008 H 50.05789857246512 99.04539451992493 89.7669207974433 H 0.0 **** 0.06
28009 H 50.636962561745236 100.3592005943647 90.81933691271144 H 0.0 **** 0.06
28010 H 51.804904035897096 99.28426815220539 90.01422942100834 H 0.0 **** 0.06
28011 C 88.77920844513824 112.43142528836613 57.94140721087882 C 0.0 **** -0.24
28012 H 89.84448818396785 112.2037995328524 57.959547851235925 H 0.0 **** 0.06
28013 H 88.26633226098602 111.71952497332782 57.29419970898533 H 0.0 **** 0.06
28014 H 88.63085260225438 113.44175752819994 57.56036540761903 H 0.0 **** 0.06
28015 H 88.3751607333453 112.36061911908448 58.95151587567523 H 0.0 **** 0.06
28016 C 75.49811052665065 13.192731055463923 51.697404259567804 C 0.0 **** -0.24
28017 H 74.86807298971867 13.562425849459572 50.888844444219785 H 0.0 **** 0.06
28018 H 75.60414780399167 13.96614197492923 52.45819280152193 H 0.0 **** 0.06
28019 H 76.48113017928692 12.934477776514314 51.30259898408056 H 0.0 **** 0.06
28020 H 75.04024969635483 12.308173412143447 52.13922519993099 H 0.0 **** 0.06
28021 C 85.81217346236042 111.62849145066231 60.175470143565704 C 0.0 **** -0.24
28022 H 84.86845305583631 111.10920498092348 60.01196831461513 H 0.0 **** 0.06
28023 H 85.78843192116597 112.59328750871518 59.66769802569203 H 0.0 **** 0.06
28024 H 86.63065360124546 111.02793268507558 59.77837444385453 H 0.0 **** 0.06
28025 H 85.96127301954118 111.78317805768634 61.244764308896904 H 0.0 **** 0.06
28026 C 109.49718007329426 61.28914579547914 55.71032218751859 C 0.0 **** -0.24
28027 H 109.11588600735274 62.30997334752695 55.72437472758003 H 0.0 **** 0.06
28028 H 109.48953794291583 60.913680114695666 54.686405320533595 H 0.0 **** 0.06
28029 H 108.86635691680516 60.65652209233684 56.33355718540673 H 0.0 **** 0.06
28030 H 110.51696273849552 61.277588154536204 56.094805321482795 H 0.0 **** 0.06
28031 C 24.38444494634942 42.808254420218496 51.97313696092493 C 0.0 **** -0.24
28032 H 23.9967491002903 43.47276264546524 52.74433487305561 H 0.0 **** 0.06
28033 H 25.139111158173165 42.15099405143779 52.40597447500528 H 0.0 **** 0.06
28034 H 24.831590882819086 43.399262010579115 51.174743566771156 H 0.0 **** 0.06
28035 H 23.569516587361974 42.20781727929333 51.56825723842621 H 0.0 **** 0.06
28036 C 23.767445516629152 102.29294936134619 67.3181131055373 C 0.0 **** -0.24
28037 H 22.684183030025395 102.25768525001162 67.20408083348514 H 0.0 **** 0.06
28038 H 24.017719140636643 102.81595506948685 68.24200151314238 H 0.0 **** 0.06
28039 H 24.205791805058652 102.82030370096622 66.4717193422992 H 0.0 **** 0.06
28040 H 24.161538913788718 101.27702956633337 67.35748272428927 H 0.0 **** 0.06
28041 C 14.264448055803939 106.53014867026718 4.22925323427981 C 0.0 **** -0.24
28042 H 13.836902212924429 106.09080100688671 5.129838969974912 H 0.0 **** 0.06
28043 H 13.885546675974354 107.5452405274011 4.105382780215194 H 0.0 **** 0.06
28044 H 13.98380736649807 105.92911147091671 3.364266732333931 H 0.0 **** 0.06
28045 H 15.350202203291815 106.55591140976877 4.31750130357139 H 0.0 **** 0.06
28046 C 74.86722390603899 8.144655754605765 5.648121279044744 C 0.0 **** -0.24
28047 H 74.47979832125522 8.065816727040698 4.632442014878734 H 0.0 **** 0.06
28048 H 74.05848954257155 7.976239053690648 6.35882660832516 H 0.0 **** 0.06
28049 H 75.28553304673011 9.139512443707375 5.800775072700617 H 0.0 **** 0.06
28050 H 75.64575904116101 7.395956782030808 5.797926162746251 H 0.0 **** 0.06
28051 C 2.4605901483506187 106.85650656527525 11.485364741804442 C 0.0 **** -0.24
28052 H 2.566552805151474 107.41968906296812 10.557846560129889 H 0.0 **** 0.06
28053 H 1.4266379475456006 106.52552546251677 11.592574926734166 H 0.0 **** 0.06
28054 H 2.7284638214180887 107.49117064241328 12.329163693217993 H 0.0 **** 0.06
28055 H 3.1186505399113997 105.98819129682484 11.45910360824844 H 0.0 **** 0.06
28056 C 54.18001903359271 114.59098733560887 112.28915040884311 C 0.0 **** -0.24
28057 H 54.42749538920238 115.6092517613252 111.9873331971055 H 0.0 **** 0.06
28058 H 53.262240243181 114.59874267628982 112.87709895962121 H 0.0 **** 0.06
28059 H 54.9935129649884 114.18353924051502 112.88939138210571 H 0.0 **** 0.06
28060 H 54.03930923191725 113.97482093225813 111.40134398619637 H 0.0 **** 0.06
28061 C 88.94156213694403 110.42432911862254 54.35929113904401 C 0.0 **** -0.24
28062 H 89.13403614738583 109.83516427234115 55.256079915610876 H 0.0 **** 0.06
28063 H 89.8685382517123 110.89214352152777 54.02612514453439 H 0.0 **** 0.06
28064 H 88.20442628427713 111.19502777431919 54.582834929644825 H 0.0 **** 0.06
28065 H 88.55990701409267 109.77345835827337 53.57262210007396 H 0.0 **** 0.06
28066 C 39.28769996759365 29.711177920641205 34.94133992116153 C 0.0 **** -0.24
28067 H 38.28698074179454 29.891178594714184 35.33359279849989 H 0.0 **** 0.06
28068 H 40.02730753881548 30.014666816909312 35.68219326567964 H 0.0 **** 0.06
28069 H 39.42873337457718 30.28958382528407 34.02813799519657 H 0.0 **** 0.06
28070 H 39.40587211190575 28.650805465199184 34.72165362280833 H 0.0 **** 0.06
28071 C 49.45085801724278 100.99437721024907 39.56791858310953 C 0.0 **** -0.24
28072 H 48.687997262417156 100.7080201201469 40.29206404745378 H 0.0 **** 0.06
28073 H 49.86103079148319 100.09922893169062 39.099717295945254 H 0.0 **** 0.06
28074 H 50.247553651573924 101.53751413646512 40.07646348105453 H 0.0 **** 0.06
28075 H 49.00579571697247 101.63267636539808 38.804801765455295 H 0.0 **** 0.06
28076 C 57.796214465652966 96.7189026081088 34.3687112696519 C 0.0 **** -0.24
28077 H 57.3080716933206 96.72926358616529 33.39348928742393 H 0.0 **** 0.06
28078 H 57.12826087034115 97.15407014297548 35.11263721617683 H 0.0 **** 0.06
28079 H 58.716070746437296 97.30077352792105 34.319975742323365 H 0.0 **** 0.06
28080 H 58.0305007035242 95.6904339034984 34.646089567877596 H 0.0 **** 0.06
28081 C 65.36219963242542 63.936086962581186 3.815469475444587 C 0.0 **** -0.24
28082 H 65.87587184786925 62.98364993574971 3.6823035836814846 H 0.0 **** 0.06
28083 H 65.51708113570496 64.29230687480799 4.833836619296678 H 0.0 **** 0.06
28084 H 64.29523276272786 63.80134095553856 3.635906652616775 H 0.0 **** 0.06
28085 H 65.7604986599176 64.66583538273763 3.1105463012729793 H 0.0 **** 0.06
28086 C 98.20316080135245 26.4407693756308 32.949086639411945 C 0.0 **** -0.24
28087 H 98.92910519899459 26.179279193522646 32.17986358204521 H 0.0 **** 0.06
28088 H 97.19699030887483 26.231838369083484 32.58572273567123 H 0.0 **** 0.06
28089 H 98.29124577785106 27.501896395426023 33.186327337124546 H 0.0 **** 0.06
28090 H 98.39563486376994 25.851395316328805 33.84548917104767 H 0.0 **** 0.06
28091 C 22.184819296924616 28.930812180321254 61.935052126943276 C 0.0 **** -0.24
28092 H 21.78379178662496 29.40349586869067 61.03840022763082 H 0.0 **** 0.06
28093 H 21.900818144106836 27.87889657353972 61.94866880065166 H 0.0 **** 0.06
28094 H 21.782985089501835 29.42812171443572 62.8174783362215 H 0.0 **** 0.06
28095 H 23.27150533929172 29.015651072690474 61.93445148171077 H 0.0 **** 0.06
28096 C 64.49297961624393 112.32599048130008 72.07796850724628 C 0.0 **** -0.24
28097 H 64.90858544774434 113.31564525908671 72.27089553898537 H 0.0 **** 0.06
28098 H 64.74518252867921 111.65973057058642 72.90333146515638 H 0.0 **** 0.06
28099 H 64.90931457256579 111.9319074038527 71.15175028449175 H 0.0 **** 0.06
28100 H 63.409457837408524 112.39892982184988 71.9874923849161 H 0.0 **** 0.06
28101 C 26.046647754916933 113.98027924325037 28.720769912914655 C 0.0 **** -0.24
28102 H 25.535363402841398 113.22470526364515 28.12484308124811 H 0.0 **** 0.06
28103 H 26.364633649499353 114.79851485145569 28.075463819434283 H 0.0 **** 0.06
28104 H 26.91927252965914 113.53501332938764 29.19975726449841 H 0.0 **** 0.06
28105 H 25.368258941448943 114.36122966325813 29.48363681073191 H 0.0 **** 0.06
28106 C 48.042372221881095 80.19685578449341 111.42667233868698 C 0.0 **** -0.24
28107 H 48.70618900459947 79.98534098413268 110.58833271291368 H 0.0 **** 0.06
28108 H 47.057021832255614 80.46992336903457 111.04895252060798 H 0.0 **** 0.06
28109 H 48.448886839359396 81.02217534888149 112.0123054224192 H 0.0 **** 0.06
28110 H 47.95777782921569 79.31140276848913 112.05618426332383 H 0.0 **** 0.06
28111 C 39.906349764565995 58.46750838732055 18.522631107557473 C 0.0 **** -0.24
28112 H 40.591102713211846 58.41114903168 19.369073427300336 H 0.0 **** 0.06
28113 H 38.97315685767228 58.93108176135638 18.841767835036137 H 0.0 **** 0.06
28114 H 39.70569163043261 57.46356712684445 18.14993853497353 H 0.0 **** 0.06
28115 H 40.35749195338133 59.06588720315932 17.73079078242496 H 0.0 **** 0.06
28116 C 77.85726490875139 67.77297819903183 7.59913516334737 C 0.0 **** -0.24
28117 H 78.23458919862354 68.1808596646306 8.536684428071915 H 0.0 **** 0.06
28118 H 76.78587832632307 67.59035680649471 7.686432437518423 H 0.0 **** 0.06
28119 H 78.36932130840029 66.83719508706896 7.377957199553885 H 0.0 **** 0.06
28120 H 78.03941998395685 68.48537369503559 6.793894331836746 H 0.0 **** 0.06
28121 C 109.80082721511377 79.56297817221218 54.90011098534049 C 0.0 **** -0.24
28122 H 109.07581180688567 79.2438329256214 54.1516615886702 H 0.0 **** 0.06
28123 H 110.78216189848112 79.66116656549968 54.43515413259945 H 0.0 **** 0.06
28124 H 109.84915536461601 78.8214643712173 55.697803438076136 H 0.0 **** 0.06
28125 H 109.49700356227164 80.52369670819348 55.31432417460666 H 0.0 **** 0.06
28126 C 108.36402343364782 64.27825688067281 110.18508230276949 C 0.0 **** -0.24
28127 H 109.05665532590714 64.29840251035876 111.0262961587758 H 0.0 **** 0.06
28128 H 108.56571287019514 65.12535273843376 109.52760935992373 H 0.0 **** 0.06
28129 H 107.34089928868644 64.34239946649906 110.55611369350713 H 0.0 **** 0.06
28130 H 108.49218943754752 63.34919407038083 109.63076447603858 H 0.0 **** 0.06
28131 C 18.8970832724562 111.50845241098904 103.0288619414824 C 0.0 **** -0.24
28132 H 18.032815033445473 110.87933084097125 103.24052200878384 H 0.0 **** 0.06
28133 H 19.41578952118914 111.73924795044525 103.9595535250734 H 0.0 **** 0.06
28134 H 18.56704065604106 112.43380548820971 102.5563715945774 H 0.0 **** 0.06
28135 H 19.574935421709455 110.97981373339621 102.35716983885638 H 0.0 **** 0.06
28136 C 106.58525685974533 23.97066022888663 58.835899932025754 C 0.0 **** -0.24
28137 H 106.18876366415428 24.265249938486818 57.86412237693929 H 0.0 **** 0.06
28138 H 105.76067341238902 23.70099785740331 59.49665855933213 H 0.0 **** 0.06
28139 H 107.14082555067584 24.802061961125105 59.2682135545834 H 0.0 **** 0.06
28140 H 107.24837297608782 23.11411814027261 58.713110513117925 H 0.0 **** 0.06
28141 C 54.18653158470215 77.64706392940855 54.85893571456015 C 0.0 **** -0.24
28142 H 53.22153431628806 77.23848076916354 55.160890508225066 H 0.0 **** 0.06
28143 H 54.482673971627605 77.21045625719631 53.904639097737004 H 0.0 **** 0.06
28144 H 54.93424635103668 77.40971394617692 55.61509516592048 H 0.0 **** 0.06
28145 H 54.10597040664004 78.7287922904891 54.75445044397526 H 0.0 **** 0.06
28146 C 75.96256842037552 4.18287978532957 19.291073240445265 C 0.0 **** -0.24
28147 H 76.81617026162327 4.846927764201679 19.152650808397023 H 0.0 **** 0.06
28148 H 76.2350473255782 3.3803646209032188 19.975733850197024 H 0.0 **** 0.06
28149 H 75.67311642331036 3.7593829749468615 18.329823797289823 H 0.0 **** 0.06
28150 H 75.1273047714142 4.747320899194047 19.706113531782083 H 0.0 **** 0.06
28151 C 0.2869421575688307 49.48664855983907 102.07675895719635 C 0.0 **** -0.24
28152 H 0.18663499819108154 48.62234402176193 101.42058773919985 H 0.0 **** 0.06
28153 H -0.18221239105265852 49.270086711301474 103.03624241280839 H 0.0 **** 0.06
28154 H -0.20028617096826906 50.348446768141514 101.61944066307238 H 0.0 **** 0.06
28155 H 1.3436349018282954 49.70556293101703 102.22977688775359 H 0.0 **** 0.06
28156 C 81.69209723857348 84.6905822146775 4.779499553892961 C 0.0 **** -0.24
28157 H 82.63390662474178 84.14215474658175 4.7585483491997 H 0.0 **** 0.06
28158 H 81.88992690727797 85.74344318438521 4.985236914539513 H 0.0 **** 0.06
28159 H 81.05007742900845 84.2818048847005 5.559502239427999 H 0.0 **** 0.06
28160 H 81.19567739176972 84.59615354636789 3.8129628508577156 H 0.0 **** 0.06
28161 C 110.40195377586682 81.49905433808703 70.32172904485228 C 0.0 **** -0.24
28162 H 110.53246422876751 80.43471476146888 70.51759851144274 H 0.0 **** 0.06
28163 H 109.6758844514919 81.6334321578652 69.51949994299957 H 0.0 **** 0.06
28164 H 111.35626724689101 81.93373414511399 70.02612667986483 H 0.0 **** 0.06
28165 H 110.04236783449875 81.99286076599287 71.22405419310095 H 0.0 **** 0.06
28166 C 86.07943712050348 20.99451394055393 88.2483308072816 C 0.0 **** -0.24
28167 H 85.2092454064753 21.238943022890794 88.85783009316091 H 0.0 **** 0.06
28168 H 85.80930536183257 21.047113281570716 87.19302243009543 H 0.0 **** 0.06
28169 H 86.41877031523723 19.986583479097845 88.48716280359702 H 0.0 **** 0.06
28170 H 86.87828847480466 21.7060663997934 88.45535525428801 H 0.0 **** 0.06
28171 C 85.0533363573978 57.41611754799368 80.99673684110655 C 0.0 **** -0.24
28172 H 85.23292519713578 57.63810113848179 82.04778944799648 H 0.0 **** 0.06
28173 H 84.52695781257489 58.251096288306556 80.53410124381475 H 0.0 **** 0.06
28174 H 84.44862285997502 56.51305380445689 80.91366449111683 H 0.0 **** 0.06
28175 H 86.00672241848804 57.26152363959562 80.48998800442638 H 0.0 **** 0.06
28176 C 64.19572061294204 42.5323929823935 13.286564975969295 C 0.0 **** -0.24
28177 H 64.34041455051972 43.39264503145512 12.632335902284947 H 0.0 **** 0.06
28178 H 65.14467339348496 42.01220947131756 13.41804997744137 H 0.0 **** 0.06
28179 H 63.468221538200766 41.85518497067193 12.840097835142004 H 0.0 **** 0.06
28180 H 63.829802007664114 42.87123620373063 14.255988217888223 H 0.0 **** 0.06
28181 C 101.0461566599867 103.62405444668191 42.474981224213224 C 0.0 **** -0.24
28182 H 101.72644874110958 103.1604702799796 41.760503818274884 H 0.0 **** 0.06
28183 H 100.63376173815294 104.53652530650953 42.04389894041785 H 0.0 **** 0.06
28184 H 101.58874990783431 103.86676156264956 43.38858637464719 H 0.0 **** 0.06
28185 H 100.23627527910398 102.93274836048728 42.70619660221962 H 0.0 **** 0.06
28186 C 13.373327411605658 34.71167559919729 79.6321952006881 C 0.0 **** -0.24
28187 H 13.046289009964397 34.39505777350203 80.62194593536816 H 0.0 **** 0.06
28188 H 12.903132666868203 35.66152456881517 79.38005174721604 H 0.0 **** 0.06
28189 H 13.088099332676506 33.95778537580958 78.8979840142822 H 0.0 **** 0.06
28190 H 14.457010881361214 34.83021765492788 79.62895617335465 H 0.0 **** 0.06
28191 C 48.955825797247385 94.92064923637375 48.39615625697266 C 0.0 **** -0.24
28192 H 47.931587429224095 94.56719786255323 48.51810907273875 H 0.0 **** 0.06
28193 H 49.550690835094684 94.1491684266085 47.9049916965661 H 0.0 **** 0.06
28194 H 49.383221651892924 95.14194969005499 49.37395757930324 H 0.0 **** 0.06
28195 H 48.95861539064981 95.82432269369143 47.78603733498787 H 0.0 **** 0.06
28196 C 101.90052276401775 87.98241980834499 4.808242916023531 C 0.0 **** -0.24
28197 H 100.83430805059027 88.15007655049683 4.959781503620093 H 0.0 **** 0.06
28198 H 102.34075789073796 87.59065054535046 5.725318945689594 H 0.0 **** 0.06
28199 H 102.38174360476975 88.92533130826193 4.548294907671107 H 0.0 **** 0.06
28200 H 102.04455071538533 87.26652507372332 3.9993979389900716 H 0.0 **** 0.06
28201 C 97.37326465655067 69.39096076262206 92.14731612619016 C 0.0 **** -0.24
28202 H 97.81942486885107 68.99810814059146 91.2326459423976 H 0.0 **** 0.06
28203 H 97.60076034817358 68.72273549613814 92.97810748380681 H 0.0 **** 0.06
28204 H 96.29347633322699 69.46261582975325 92.02222734194328 H 0.0 **** 0.06
28205 H 97.78251951234664 70.38000513499549 92.35326574925665 H 0.0 **** 0.06
28206 C 78.63465392048914 28.817745713849483 92.38240104767365 C 0.0 **** -0.24
28207 H 78.62747993885915 29.851075129705272 92.03577242932977 H 0.0 **** 0.06
28208 H 77.90350089764581 28.24024353518768 91.81587470355399 H 0.0 **** 0.06
28209 H 78.37884027498575 28.78800985381023 93.44130315971051 H 0.0 **** 0.06
28210 H 79.62695269804544 28.392274699914097 92.23516292639187 H 0.0 **** 0.06
28211 C 3.035112392804919 12.63677724504231 7.293709209742332 C 0.0 **** -0.24
28212 H 2.973856932289735 13.722048718538247 7.203275560735904 H 0.0 **** 0.06
28213 H 4.067371217429269 12.347193493843463 7.49056074734068 H 0.0 **** 0.06
28214 H 2.6988270801170557 12.176210908715348 6.364909780559401 H 0.0 **** 0.06
28215 H 2.400649584250516 12.305170186163707 8.114831722041089 H 0.0 **** 0.06
28216 C 11.10602107750573 13.241592347724648 44.28951905083703 C 0.0 **** -0.24
28217 H 10.449489058212592 13.040663851356697 43.44310131378292 H 0.0 **** 0.06
28218 H 10.513038655978264 13.297116289105691 45.203222819580006 H 0.0 **** 0.06
28219 H 11.622308800430105 14.188667110055789 44.13281253068608 H 0.0 **** 0.06
28220 H 11.838475241689508 12.43885824810636 44.37946050735418 H 0.0 **** 0.06
28221 C 76.28771452500752 25.014484292513302 71.35779882612866 C 0.0 **** -0.24
28222 H 75.89447101771714 25.85869871984122 71.92446902894147 H 0.0 **** 0.06
28223 H 77.32933549472278 25.20516731688666 71.0977001063963 H 0.0 **** 0.06
28224 H 75.70307573749301 24.88600272171567 70.4468265254157 H 0.0 **** 0.06
28225 H 76.2236085574865 24.110261504105495 71.96196358073524 H 0.0 **** 0.06
28226 C 13.846821980162616 16.450064604752384 74.76590956062748 C 0.0 **** -0.24
28227 H 13.059594966404774 17.009040392641367 75.27267607698661 H 0.0 **** 0.06
28228 H 13.502771698565994 15.433398071943856 74.57180596109191 H 0.0 **** 0.06
28229 H 14.734091261668482 16.418745279152574 75.39832230568335 H 0.0 **** 0.06
28230 H 14.089622056939248 16.93821913833216 73.82250997418951 H 0.0 **** 0.06
28231 C 44.812073554415534 77.49470824477959 31.035579921147892 C 0.0 **** -0.24
28232 H 43.968274976076515 77.49725361601082 31.724914369881738 H 0.0 **** 0.06
28233 H 45.73452182063204 77.66523171891208 31.590168475002685 H 0.0 **** 0.06
28234 H 44.680297707848155 78.2858277503023 30.297034972338317 H 0.0 **** 0.06
28235 H 44.865197121613164 76.53094702215134 30.52929764859163 H 0.0 **** 0.06
28236 C 66.0420183189542 109.92696119325794 52.91459885744092 C 0.0 **** -0.24
28237 H 65.39685671074307 109.6213465466529 52.09068820592977 H 0.0 **** 0.06
28238 H 65.74862662496187 109.39766229555472 53.820802756865675 H 0.0 **** 0.06
28239 H 65.9434785488643 111.0006856003882 53.073181154388955 H 0.0 **** 0.06
28240 H 67.07741831639095 109.68816151483371 52.672658606099574 H 0.0 **** 0.06
28241 C 38.79723182030892 48.99849392480047 109.44040943199845 C 0.0 **** -0.24
28242 H 38.90391353868161 48.925293092086505 108.3584102791624 H 0.0 **** 0.06
28243 H 37.7928170082983 48.68578194031319 109.7287299982473 H 0.0 **** 0.06
28244 H 38.959222695374706 50.03042041807302 109.75263251106036 H 0.0 **** 0.06
28245 H 39.532012554960374 48.35350818252344 109.92200283263308 H 0.0 **** 0.06
28246 C 78.94416250269718 59.82386303387733 8.606181806921516 C 0.0 **** -0.24
28247 H 78.26656988171135 60.37905789962565 7.956867934324684 H 0.0 **** 0.06
28248 H 79.91419738101786 59.72472840719706 8.118483902901012 H 0.0 **** 0.06
28249 H 78.53130798940005 58.834445184820254 8.799727548542627 H 0.0 **** 0.06
28250 H 79.06413279968365 60.35929647080286 9.548424749130039 H 0.0 **** 0.06
28251 C 39.529431259685566 11.115762137769309 46.08089358914392 C 0.0 **** -0.24
28252 H 39.58767677958102 10.04200247380632 45.90220613080351 H 0.0 **** 0.06
28253 H 40.03947142737832 11.356900527748419 47.01303725077731 H 0.0 **** 0.06
28254 H 38.48379178300772 11.415785188867094 46.14867116797275 H 0.0 **** 0.06
28255 H 40.006751854529625 11.64630033957949 45.25653634622081 H 0.0 **** 0.06
28256 C 62.4656096340363 79.10158127700853 12.774604259392447 C 0.0 **** -0.24
28257 H 62.45955838080806 78.7403126535586 13.802770050475573 H 0.0 **** 0.06
28258 H 62.62750227130073 78.26329893656008 12.097042423887075 H 0.0 **** 0.06
28259 H 63.26693485917201 79.83005521115476 12.651262621352174 H 0.0 **** 0.06
28260 H 61.50775018483736 79.5723190873082 12.54966685992514 H 0.0 **** 0.06
28261 C 2.1520213627813973 110.165328196134 74.8383162232991 C 0.0 **** -0.24
28262 H 2.3806250724096287 109.13767362062157 75.12018845229466 H 0.0 **** 0.06
28263 H 1.096059060918634 110.36548237813557 75.02024885133187 H 0.0 **** 0.06
28264 H 2.371196729283156 110.30853926823335 73.78034302535082 H 0.0 **** 0.06
28265 H 2.759810615336761 110.8484630827397 75.43061043782905 H 0.0 **** 0.06
28266 C 0.8537068203391129 83.5532040421178 57.26448471662846 C 0.0 **** -0.24
28267 H 1.3012712339125585 83.08552686071455 56.387821341206916 H 0.0 **** 0.06
28268 H 1.5856828458569225 83.58568337350391 58.07231255762369 H 0.0 **** 0.06
28269 H -0.012917369770349296 82.97433893539188 57.58223650309935 H 0.0 **** 0.06
28270 H 0.5417149285114249 84.56751332245126 57.0158599185296 H 0.0 **** 0.06
28271 C 65.29176063878387 68.30143960772051 102.70370120695213 C 0.0 **** -0.24
28272 H 64.29891359608729 68.17254333409102 102.2709956033753 H 0.0 **** 0.06
28273 H 65.40273287801526 67.63829864627678 103.56236461817875 H 0.0 **** 0.06
28274 H 65.41690417767387 69.33525012698345 103.02314191521958 H 0.0 **** 0.06
28275 H 66.04655648637474 68.05764644208438 101.95581772904174 H 0.0 **** 0.06
28276 C 14.723980972930406 78.84920065952006 109.98626113353376 C 0.0 **** -0.24
28277 H 15.255949400196926 77.92472896575202 109.76169436837824 H 0.0 **** 0.06
28278 H 14.150336219265967 79.15824185166139 109.11216341485647 H 0.0 **** 0.06
28279 H 15.44161319887263 79.62864301778251 110.24377850108209 H 0.0 **** 0.06
28280 H 14.048368138511478 78.68541813340683 110.82521052414339 H 0.0 **** 0.06
28281 C 23.273404563995854 101.49875065473111 59.049823018508235 C 0.0 **** -0.24
28282 H 23.716536136301425 101.79556904078004 58.098766837704744 H 0.0 **** 0.06
28283 H 22.199610042335525 101.68100388939604 59.02281239025362 H 0.0 **** 0.06
28284 H 23.72186098483689 102.08034385801426 59.85586817468065 H 0.0 **** 0.06
28285 H 23.458616774404916 100.43765986690511 59.220958669260256 H 0.0 **** 0.06
28286 C 73.30519023509487 103.05705720983241 62.33190366358416 C 0.0 **** -0.24
28287 H 73.48996671075041 103.79843108598362 61.55425913873799 H 0.0 **** 0.06
28288 H 72.96100341566768 102.12900998029122 61.874240699025435 H 0.0 **** 0.06
28289 H 72.54250555165396 103.4298144278034 63.015835459203274 H 0.0 **** 0.06
28290 H 74.22728526230745 102.87097334525146 62.88327935736993 H 0.0 **** 0.06
28291 C 27.459115869546054 101.80393502097121 100.2889136986465 C 0.0 **** -0.24
28292 H 28.09687790294356 102.65926085586682 100.5124106086306 H 0.0 **** 0.06
28293 H 27.92790272278836 100.89339230521747 100.66343667631946 H 0.0 **** 0.06
28294 H 27.322840191439298 101.72457293503317 99.21051574962354 H 0.0 **** 0.06
28295 H 26.490247364418906 101.938676978281 100.76927288783867 H 0.0 **** 0.06
28296 C 96.09264242160917 86.72594405811805 37.829324331802496 C 0.0 **** -0.24
28297 H 96.31825955123145 85.66116577790888 37.76660506331995 H 0.0 **** 0.06
28298 H 96.99083935530754 87.27020803371818 38.12112657446947 H 0.0 **** 0.06
28299 H 95.31208928633535 86.88889612564185 38.57309179024526 H 0.0 **** 0.06
28300 H 95.74970465036587 87.0821718696667 36.858238881463656 H 0.0 **** 0.06
28301 C 74.66484826439904 14.875347939558363 28.677078293261914 C 0.0 **** -0.24
28302 H 74.77803767507362 15.364615118014886 27.709214982707977 H 0.0 **** 0.06
28303 H 73.78135128465789 15.26694733948641 29.18137241192335 H 0.0 **** 0.06
28304 H 75.54732358501826 15.06850786988435 29.28691769575842 H 0.0 **** 0.06
28305 H 74.55374799037659 13.80096236920079 28.529952699597594 H 0.0 **** 0.06
28306 C 103.929596448763 106.9347486253393 80.8707679303301 C 0.0 **** -0.24
28307 H 104.67887670809492 107.13824757075105 81.63565015232932 H 0.0 **** 0.06
28308 H 104.42379414367963 106.59142678405402 79.96169019454116 H 0.0 **** 0.06
28309 H 103.37071733136008 107.84648575819494 80.65907923192665 H 0.0 **** 0.06
28310 H 103.24672142528959 106.16370987600908 81.22777565181978 H 0.0 **** 0.06
28311 C 64.58807546263017 77.07468599542375 23.98643840127022 C 0.0 **** -0.24
28312 H 65.25840484272916 77.13099793146023 24.84368982401358 H 0.0 **** 0.06
28313 H 64.24292639660734 78.07607483744869 23.729125237448415 H 0.0 **** 0.06
28314 H 63.732122875169864 76.44711729781119 24.23501688486199 H 0.0 **** 0.06
28315 H 65.12023452710929 76.64473788978358 23.137714107671002 H 0.0 **** 0.06
28316 C 106.69975019764607 70.80639821542468 114.49965308530693 C 0.0 **** -0.24
28317 H 106.44931979948242 70.79223194758237 115.56083004435129 H 0.0 **** 0.06
28318 H 106.78800924499642 71.83959095273951 114.16144345954729 H 0.0 **** 0.06
28319 H 105.91396996270059 70.30540700417964 113.9351535495291 H 0.0 **** 0.06
28320 H 107.6467162894927 70.29111397513716 114.34304576741232 H 0.0 **** 0.06
28321 C 62.18984345913765 106.10266271396736 91.19658177889725 C 0.0 **** -0.24
28322 H 62.569896733289454 107.00718477914754 91.67238840679016 H 0.0 **** 0.06
28323 H 62.41665864631284 105.24082441435259 91.82419485289766 H 0.0 **** 0.06
28324 H 62.664555064539684 105.97816662210191 90.22222851183724 H 0.0 **** 0.06
28325 H 61.11100561315959 106.1848794706639 91.0669522132579 H 0.0 **** 0.06
28326 C 28.62382536423172 72.4913142409772 42.056197072982215 C 0.0 **** -0.24
28327 H 28.23692007262204 72.61167523619923 41.043899129039886 H 0.0 **** 0.06
28328 H 28.79565972961649 71.43268423390265 42.255227502266784 H 0.0 **** 0.06
28329 H 27.900417397207207 72.88296540894419 42.770778619378845 H 0.0 **** 0.06
28330 H 29.562729568124666 73.03583975488738 42.153682371720265 H 0.0 **** 0.06
28331 C 44.543682323797285 77.19862442471937 83.25665417065244 C 0.0 **** -0.24
28332 H 43.760495289142526 76.81057500489251 83.90804981139172 H 0.0 **** 0.06
28333 H 44.97103000808193 78.09822673122885 83.69984850050434 H 0.0 **** 0.06
28334 H 44.11946258340842 77.43856403202739 82.2822656001909 H 0.0 **** 0.06
28335 H 45.32338857380327 76.44608232746329 83.13839548015056 H 0.0 **** 0.06
28336 C 108.86239071487731 113.68061899404859 107.10523134540624 C 0.0 **** -0.24
28337 H 109.16548623948734 113.75647464934121 108.14906060604366 H 0.0 **** 0.06
28338 H 109.69029129055198 113.29069186775504 106.51371381850359 H 0.0 **** 0.06
28339 H 108.58457989923049 114.66862721970517 106.73565245714452 H 0.0 **** 0.06
28340 H 108.00742812054042 113.00946278411718 107.02283071485272 H 0.0 **** 0.06
28341 C 77.92413793015515 9.7974897208653 51.02752738524477 C 0.0 **** -0.24
28342 H 76.9499560434133 10.202514090288005 51.2984579547751 H 0.0 **** 0.06
28343 H 78.27434825679836 9.133249236760633 51.81759184993126 H 0.0 **** 0.06
28344 H 78.63383590839584 10.614533119462152 50.89863439105093 H 0.0 **** 0.06
28345 H 77.83934991181218 9.239902642997407 50.09439489842734 H 0.0 **** 0.06
28346 C 41.9445762357534 0.35145415031084326 66.86389119900285 C 0.0 **** -0.24
28347 H 42.476891716730336 0.15022298301636283 67.79266227267928 H 0.0 **** 0.06
28348 H 42.19875167026336 1.3496987706774064 66.50863349646325 H 0.0 **** 0.06
28349 H 40.87004062389167 0.2904768428219313 67.03930670158344 H 0.0 **** 0.06
28350 H 42.232208803315274 -0.3855652843096493 66.11299672694892 H 0.0 **** 0.06
28351 C 57.804239859748336 78.37851661548464 72.95586898349092 C 0.0 **** -0.24
28352 H 58.61390156450038 77.66942613636559 72.78422646401572 H 0.0 **** 0.06
28353 H 57.36440981827347 78.66656778477649 72.00121428423023 H 0.0 **** 0.06
28354 H 58.19727954019376 79.26381296176392 73.45695960633992 H 0.0 **** 0.06
28355 H 57.04202681571617 77.91522498468221 73.58235417393243 H 0.0 **** 0.06
28356 C 94.37490545930308 22.409881981211242 42.756559004171436 C 0.0 **** -0.24
28357 H 93.67224551127224 21.736432892058417 43.24692096650716 H 0.0 **** 0.06
28358 H 94.0290497268093 22.621734161614086 41.74452735724569 H 0.0 **** 0.06
28359 H 95.35740605440532 21.94025522365166 42.7140876231436 H 0.0 **** 0.06
28360 H 94.4412694345091 23.339735194884327 43.320684283276535 H 0.0 **** 0.06
28361 C 17.766225628976542 78.83601975799803 92.11102945583154 C 0.0 **** -0.24
28362 H 18.56579796415508 78.95841170924791 92.84128202489683 H 0.0 **** 0.06
28363 H 18.059903552532376 79.30141869345238 91.17039422590189 H 0.0 **** 0.06
28364 H 16.857811863260054 79.30920050392996 92.48348341405926 H 0.0 **** 0.06
28365 H 17.582126091015454 77.77384132357537 91.94898346492661 H 0.0 **** 0.06
28366 C 31.415041069523397 98.75426660899329 22.508910754677373 C 0.0 **** -0.24
28367 H 30.631981690384862 98.44248424548 23.199798805470365 H 0.0 **** 0.06
28368 H 32.383963526181844 98.68397752451023 23.003346067187323 H 0.0 **** 0.06
28369 H 31.23804768326994 99.78409166930093 22.201232105363417 H 0.0 **** 0.06
28370 H 31.40524393965194 98.10564382529337 21.63281026417576 H 0.0 **** 0.06
28371 C 64.24730617514177 7.63868424413792 36.73876705220611 C 0.0 **** -0.24
28372 H 64.33410408559821 6.581324613079545 36.986232630462105 H 0.0 **** 0.06
28373 H 64.33037300362791 7.7669579240671 35.659339730534384 H 0.0 **** 0.06
28374 H 65.04482892591092 8.193089192958837 37.233113237418415 H 0.0 **** 0.06
28375 H 63.28076196236876 8.012827921851681 37.076397548507096 H 0.0 **** 0.06
28376 C 62.30965688340625 114.58513115010997 53.55836330025295 C 0.0 **** -0.24
28377 H 62.796891225406526 113.66571642852804 53.23261974899657 H 0.0 **** 0.06
28378 H 61.61877923975156 114.92426835825057 52.7858798739382 H 0.0 **** 0.06
28379 H 63.063076069884445 115.35204288771037 53.73466531554578 H 0.0 **** 0.06
28380 H 61.759408898928214 114.39640295108764 54.48091490078366 H 0.0 **** 0.06
28381 C 102.02606845549512 82.63844378678368 19.339930521306826 C 0.0 **** -0.24
28382 H 101.16878924326083 83.03970901830178 19.88126606474249 H 0.0 **** 0.06
28383 H 102.3698898516954 81.72701943359402 19.828687140002373 H 0.0 **** 0.06
28384 H 102.82965897626917 83.3755446826932 19.33522362411813 H 0.0 **** 0.06
28385 H 101.73349237989295 82.41350116237692 18.31436111673824 H 0.0 **** 0.06
28386 C 15.553804180632142 70.72433546405819 68.80939669941819 C 0.0 **** -0.24
28387 H 15.046294430238163 71.38132191172065 68.10193977112765 H 0.0 **** 0.06
28388 H 16.42568768525416 70.2799738903509 68.33115784623885 H 0.0 **** 0.06
28389 H 14.870879145600043 69.93525847541525 69.12608980967094 H 0.0 **** 0.06
28390 H 15.869236798511452 71.3018611799817 69.67805016090763 H 0.0 **** 0.06
28391 C 16.289459334746027 54.69318189252973 106.66991249682637 C 0.0 **** -0.24
28392 H 16.319876591221828 54.16569411185886 105.7163780178482 H 0.0 **** 0.06
28393 H 17.10699264811109 55.41371775649384 106.71233860142877 H 0.0 **** 0.06
28394 H 16.39427345991396 53.97615626013597 107.48481424357689 H 0.0 **** 0.06
28395 H 15.337508903806281 55.2160611651595 106.76575735581885 H 0.0 **** 0.06
28396 C 44.34205677768476 20.94416031949851 5.255655871635128 C 0.0 **** -0.24
28397 H 44.67272446088229 20.03664720093832 4.748612001953177 H 0.0 **** 0.06
28398 H 43.43545996510542 21.31733205103003 4.778482238717231 H 0.0 **** 0.06
28399 H 45.12496393376162 21.70029175340798 5.191881030890471 H 0.0 **** 0.06
28400 H 44.13683980728143 20.72024299139417 6.302476094213148 H 0.0 **** 0.06
28401 C 74.59807674362258 35.14357485698358 92.015877006826 C 0.0 **** -0.24
28402 H 73.88306460701742 35.30972096816248 91.2109934203688 H 0.0 **** 0.06
28403 H 75.00934624241145 36.10025045234974 92.33939178486466 H 0.0 **** 0.06
28404 H 75.40446358105348 34.50367651830791 91.6582991696313 H 0.0 **** 0.06
28405 H 74.0957973008891 34.66120829983009 92.85357584317144 H 0.0 **** 0.06
28406 C 16.991951989170673 81.45745847340073 97.61934603105877 C 0.0 **** -0.24
28407 H 17.859663808174105 81.67574547753172 96.99679600147101 H 0.0 **** 0.06
28408 H 16.9237248712013 80.38166320001957 97.78357207364826 H 0.0 **** 0.06
28409 H 16.088333320271346 81.80739600363631 97.11918341791261 H 0.0 **** 0.06
28410 H 17.095700268964663 81.96634427873029 98.57818185752421 H 0.0 **** 0.06
28411 C 112.33169191802622 26.775536839335928 112.2991561125223 C 0.0 **** -0.24
28412 H 113.35966677480691 26.447526090675012 112.45083060843746 H 0.0 **** 0.06
28413 H 112.11267907301361 27.604912628399433 112.97085371275634 H 0.0 **** 0.06
28414 H 111.65223837004041 25.949446323499984 112.50819647130118 H 0.0 **** 0.06
28415 H 112.20302403433763 27.09980323117179 111.26645603941162 H 0.0 **** 0.06
28416 C 110.88986732327061 52.49090969564412 41.264528960846384 C 0.0 **** -0.24
28417 H 110.62228741386542 53.54650749987786 41.31135652267125 H 0.0 **** 0.06
28418 H 110.03894362348365 51.91714530552997 40.898054123746746 H 0.0 **** 0.06
28419 H 111.16392111745364 52.14207534869047 42.25970362743374 H 0.0 **** 0.06
28420 H 111.7350936828422 52.36048124094475 40.58811309613097 H 0.0 **** 0.06
28421 C 21.013250116811154 20.19067094619814 78.84631439973373 C 0.0 **** -0.24
28422 H 21.57554615241308 19.683916497261677 79.6303632684997 H 0.0 **** 0.06
28423 H 21.473112621429863 21.156240498415784 78.63542229336161 H 0.0 **** 0.06
28424 H 19.985361266043558 20.34146942339507 79.17574552734345 H 0.0 **** 0.06
28425 H 21.019069307863056 19.57992961733069 77.94287774736631 H 0.0 **** 0.06
28426 C 92.76852125412417 38.54619681327454 89.81754426945247 C 0.0 **** -0.24
28427 H 92.1749656181695 37.63158582584356 89.81652261974804 H 0.0 **** 0.06
28428 H 93.22159217900044 38.68365459872426 90.79957770791253 H 0.0 **** 0.06
28429 H 92.1256279725294 39.396183531695776 89.59068679692365 H 0.0 **** 0.06
28430 H 93.55119085473387 38.47149405712937 89.06238775168927 H 0.0 **** 0.06
28431 C 0.06052911746056111 70.56208152205332 77.76212766426526 C 0.0 **** -0.24
28432 H -0.04506048102315674 71.63653198353131 77.61693980203096 H 0.0 **** 0.06
28433 H 0.7177460266613309 70.3728283223177 78.61072515511482 H 0.0 **** 0.06
28434 H 0.48831625410491597 70.11446039479475 76.86462775336368 H 0.0 **** 0.06
28435 H -0.9188412970379574 70.12388809006853 77.95460017787612 H 0.0 **** 0.06
28436 C 110.95555944781381 89.47672053076332 84.13171061469697 C 0.0 **** -0.24
28437 H 111.27030226005266 90.51158793157936 84.00261027331014 H 0.0 **** 0.06
28438 H 111.27311150717048 88.88978132062027 83.26941620324553 H 0.0 **** 0.06
28439 H 109.86989045895879 89.43529149446158 84.22059844647944 H 0.0 **** 0.06
28440 H 111.40945057324909 89.06947353965285 85.03530084387252 H 0.0 **** 0.06
28441 C 68.53839686373806 43.44560713733846 37.70023695951456 C 0.0 **** -0.24
28442 H 68.09453917956964 43.414741774712446 36.70507101759766 H 0.0 **** 0.06
28443 H 69.61558296120216 43.29404558605246 37.6225978492279 H 0.0 **** 0.06
28444 H 68.10326286469203 42.6584920636886 38.31541236056288 H 0.0 **** 0.06
28445 H 68.33886831382989 44.41543199109963 38.156798790767226 H 0.0 **** 0.06
28446 C 24.033096614263968 17.43684089786956 89.55784690386884 C 0.0 **** -0.24
28447 H 23.658061755943777 17.756393506878965 90.53009200407436 H 0.0 **** 0.06
28448 H 25.10604598870603 17.25612453829683 89.62407228126148 H 0.0 **** 0.06
28449 H 23.840901820502836 18.21640805717169 88.8200679332399 H 0.0 **** 0.06
28450 H 23.52737689190326 16.518437489130804 89.2571553968998 H 0.0 **** 0.06
28451 C 81.40657730456009 53.49311737568915 108.21165738273328 C 0.0 **** -0.24
28452 H 80.53207429446526 52.98280582175418 107.80708822935802 H 0.0 **** 0.06
28453 H 81.9753521894424 52.80127888136386 108.83399190579493 H 0.0 **** 0.06
28454 H 81.08492075779778 54.343346606390135 108.81378521074211 H 0.0 **** 0.06
28455 H 82.03265768341156 53.8447901534162 107.39225143180666 H 0.0 **** 0.06
28456 C 65.14907868634391 30.08036823608353 88.43922924521871 C 0.0 **** -0.24
28457 H 64.57184213501145 30.99969779166085 88.53305692395638 H 0.0 **** 0.06
28458 H 66.20959937096282 30.323230285918328 88.36083565688753 H 0.0 **** 0.06
28459 H 64.83228746109073 29.541227766084774 87.54663280352423 H 0.0 **** 0.06
28460 H 64.98377670908359 29.456416967725772 89.3177226382137 H 0.0 **** 0.06
28461 C 36.753901747916984 33.65453489934305 12.483340734303454 C 0.0 **** -0.24
28462 H 36.919043149662144 32.72703914995208 11.93561044138113 H 0.0 **** 0.06
28463 H 37.53413025758741 34.37143932697097 12.227776527358515 H 0.0 **** 0.06
28464 H 36.78122658987914 33.45300667988192 13.553998130098137 H 0.0 **** 0.06
28465 H 35.780717831968275 34.0657823707881 12.21599430475942 H 0.0 **** 0.06
28466 C 63.92286092797235 97.40650470446377 47.383940665555826 C 0.0 **** -0.24
28467 H 64.28539149319835 97.80661096526865 46.43682074237205 H 0.0 **** 0.06
28468 H 64.66973321503946 97.57785560387867 48.15948772504822 H 0.0 **** 0.06
28469 H 63.74397964660699 96.33631230702633 47.28043091074295 H 0.0 **** 0.06
28470 H 62.993739110169884 97.9066863835896 47.65679864729117 H 0.0 **** 0.06
28471 C 39.55185056484234 69.68828855757023 54.674014962317244 C 0.0 **** -0.24
28472 H 38.65365450661409 69.54530015491915 54.07394274538328 H 0.0 **** 0.06
28473 H 39.83410095867458 70.74186677594251 54.66159295556898 H 0.0 **** 0.06
28474 H 40.363962580961385 69.08978554134822 54.26021088300982 H 0.0 **** 0.06
28475 H 39.35735250307653 69.37639815210576 55.6998908808996 H 0.0 **** 0.06
28476 C 69.45357142031304 94.31643745846247 76.73789853029746 C 0.0 **** -0.24
28477 H 69.66959533615181 95.09524883847712 77.47012262720574 H 0.0 **** 0.06
28478 H 68.77825936686833 94.70993093201068 75.9782716085113 H 0.0 **** 0.06
28479 H 68.98602386278634 93.4683588655052 77.23698917241637 H 0.0 **** 0.06
28480 H 70.38169209652341 93.99486379415535 76.26677023809071 H 0.0 **** 0.06
28481 C 73.46853425979803 74.07343501192497 69.15363375768152 C 0.0 **** -0.24
28482 H 73.79311792275799 74.93126663537134 69.74319880607487 H 0.0 **** 0.06
28483 H 74.33004672049998 73.44737603514477 68.91845495524996 H 0.0 **** 0.06
28484 H 73.0093105209327 74.421719901367 68.22848093395973 H 0.0 **** 0.06
28485 H 72.74310729800973 73.49429509060855 69.72466283497675 H 0.0 **** 0.06
28486 C 89.69887687236638 18.72277487202183 50.29236202791549 C 0.0 **** -0.24
28487 H 89.30653662445692 19.434097586207088 49.56525150770301 H 0.0 **** 0.06
28488 H 89.2627387474433 18.925436094256668 51.27013576205243 H 0.0 **** 0.06
28489 H 90.78279665006532 18.822444119493525 50.348660376921146 H 0.0 **** 0.06
28490 H 89.44287292228422 17.70950741990208 49.982154640072594 H 0.0 **** 0.06
28491 C 110.02055949103587 16.681248544192357 26.613935089339122 C 0.0 **** -0.24
28492 H 109.26739790452504 16.71041479059943 25.826758178606298 H 0.0 **** 0.06
28493 H 110.24772547742535 17.69829161098494 26.935847584719568 H 0.0 **** 0.06
28494 H 110.92584114147104 16.209506619924497 26.232440375615568 H 0.0 **** 0.06
28495 H 109.640097594399 16.108443395967356 27.45933235115635 H 0.0 **** 0.06
28496 C 84.09214175049377 4.42140675308093 111.45001322534117 C 0.0 **** -0.24
28497 H 84.61019615105778 5.004731575022191 112.21142333877731 H 0.0 **** 0.06
28498 H 83.82670619244328 3.4461467253764226 111.85840937191955 H 0.0 **** 0.06
28499 H 84.74609074023215 4.289099712002951 110.58806826196432 H 0.0 **** 0.06
28500 H 83.18765002670995 4.94608379441533 111.14285975049437 H 0.0 **** 0.06
28501 C 54.051138648456735 100.06423549166487 69.41391144062231 C 0.0 **** -0.24
28502 H 53.21535988072536 99.86468530513969 70.08423308314309 H 0.0 **** 0.06
28503 H 54.95175311903012 100.2457959623058 69.9994964995388 H 0.0 **** 0.06
28504 H 53.82875260917524 100.9418115346345 68.80718393147993 H 0.0 **** 0.06
28505 H 54.20747540165804 99.20343373606124 68.76330038466364 H 0.0 **** 0.06
28506 C 8.77336945831205 97.44867152114523 96.00299169028816 C 0.0 **** -0.24
28507 H 8.407711307088057 96.51595090585937 96.43312534128121 H 0.0 **** 0.06
28508 H 8.011787528867611 98.22078035158253 96.1103343607267 H 0.0 **** 0.06
28509 H 8.993874558341759 97.29911775955406 94.94587166422426 H 0.0 **** 0.06
28510 H 9.68029387591195 97.7574478184284 96.52282036557466 H 0.0 **** 0.06
28511 C 113.2715091367983 7.821666500319992 12.996052827454207 C 0.0 **** -0.24
28512 H 114.31065112118051 7.523145066721099 13.132414153709021 H 0.0 **** 0.06
28513 H 112.97954810815523 7.655692681505087 11.958960730608055 H 0.0 **** 0.06
28514 H 113.16345843583778 8.879450668108191 13.239030894049108 H 0.0 **** 0.06
28515 H 112.6341783344649 7.230250183763474 13.652684906865488 H 0.0 **** 0.06
28516 C 17.720437626260072 95.08727234773356 38.11145638763254 C 0.0 **** -0.24
28517 H 18.544926331456647 94.76318042387517 38.745645075678084 H 0.0 **** 0.06
28518 H 17.151039330133273 94.21742116263066 37.78372622519371 H 0.0 **** 0.06
28519 H 18.11531224912494 95.61199065479633 37.24206969178084 H 0.0 **** 0.06
28520 H 17.06963257958171 95.75563774950527 38.67563194604404 H 0.0 **** 0.06
28521 C 23.242895495452075 92.33169656319764 17.909808029748945 C 0.0 **** -0.24
28522 H 24.310818444872837 92.48869156003364 18.064451980346774 H 0.0 **** 0.06
28523 H 22.72045291424999 92.42191549981086 18.861742796086077 H 0.0 **** 0.06
28524 H 23.079006494303883 91.33555517971831 17.496998900836047 H 0.0 **** 0.06
28525 H 22.86302654927526 93.08043575347384 17.214306920516464 H 0.0 **** 0.06
28526 C 53.304423829901964 26.035497692150273 107.75196901208902 C 0.0 **** -0.24
28527 H 54.225637448109296 25.890859902284546 108.31543495921564 H 0.0 **** 0.06
28528 H 52.52131621633674 25.398329962379364 108.1663389740011 H 0.0 **** 0.06
28529 H 53.47121587632114 25.772521777914307 106.7073683038976 H 0.0 **** 0.06
28530 H 52.99732978570063 27.079435724124096 107.81941691338571 H 0.0 **** 0.06
28531 C 71.86850602229063 52.67968437428141 66.73072127406881 C 0.0 **** -0.24
28532 H 71.31483413098172 51.78560974478506 67.01879868335591 H 0.0 **** 0.06
28533 H 72.86247344048289 52.3951165720851 66.38638501633112 H 0.0 **** 0.06
28534 H 71.95649289940543 53.34422325536627 67.58958323985911 H 0.0 **** 0.06
28535 H 71.33775331821536 53.19167168097459 65.92747027193624 H 0.0 **** 0.06
28536 C 115.80932941217579 4.35672440962837 62.115338090303 C 0.0 **** -0.24
28537 H 116.09118354948566 3.824951090772018 63.02359294588615 H 0.0 **** 0.06
28538 H 114.86981062645988 3.9546311811460555 61.7365505153669 H 0.0 **** 0.06
28539 H 116.58806868513076 4.230621347376555 61.36323456647585 H 0.0 **** 0.06
28540 H 115.68825478762697 5.41669401921888 62.3379743334832 H 0.0 **** 0.06
28541 C 106.81833409109885 93.83609736084334 14.252909326584629 C 0.0 **** -0.24
28542 H 107.75029435986602 93.54554495676214 14.737111632844915 H 0.0 **** 0.06
28543 H 106.28540150816004 94.54571312890789 14.886787035691995 H 0.0 **** 0.06
28544 H 106.19967978138489 92.95178637905072 14.097408416163915 H 0.0 **** 0.06
28545 H 107.03700101807034 94.30031265026183 13.291336924430624 H 0.0 **** 0.06
28546 C 99.75296651020426 15.95711616363424 79.1223988283179 C 0.0 **** -0.24
28547 H 100.3278434007621 16.873697587084322 79.25127690452592 H 0.0 **** 0.06
28548 H 99.95881776030194 15.533795106754098 78.13931892558315 H 0.0 **** 0.06
28549 H 98.68939773161941 16.18029682689135 79.20587571492445 H 0.0 **** 0.06
28550 H 100.0345533053989 15.240146661776635 79.89419557339602 H 0.0 **** 0.06
28551 C 11.788378896030267 40.636383260352225 3.952664092131158 C 0.0 **** -0.24
28552 H 11.910256183631503 39.565387729519706 3.7933436401705194 H 0.0 **** 0.06
28553 H 11.728545258311385 41.1425540757182 2.989363217613402 H 0.0 **** 0.06
28554 H 12.641614905561966 41.02008137397971 4.512721829462976 H 0.0 **** 0.06
28555 H 10.873259653576298 40.81830363390385 4.515814409263555 H 0.0 **** 0.06
28556 C 54.27531371336775 73.69372209408215 26.983563577861716 C 0.0 **** -0.24
28557 H 53.647342937071336 73.41484350944958 26.13747080098318 H 0.0 **** 0.06
28558 H 53.764572551866884 74.44895653198148 27.582334033233934 H 0.0 **** 0.06
28559 H 55.21866997520167 74.09854676691393 26.61691864192173 H 0.0 **** 0.06
28560 H 54.47122208797664 72.81436855273674 27.596365959679957 H 0.0 **** 0.06
28561 C 4.501676349952049 83.95718358981192 29.81451039643858 C 0.0 **** -0.24
28562 H 4.9481429377611335 82.97901982702753 29.629607936524394 H 0.0 **** 0.06
28563 H 3.4287333091299956 83.84231917595976 29.968999752371815 H 0.0 **** 0.06
28564 H 4.679492294234592 84.60500368889583 28.956491673897915 H 0.0 **** 0.06
28565 H 4.952270704170132 84.3993525426288 30.702785055292537 H 0.0 **** 0.06
28566 C 18.90478409530039 107.04387295487425 33.782367678886175 C 0.0 **** -0.24
28567 H 18.30186974520369 106.47739922078031 34.492676341781504 H 0.0 **** 0.06
28568 H 18.529438831252797 108.06490787918213 33.72144056085275 H 0.0 **** 0.06
28569 H 18.844372881979126 106.57489504625764 32.80014124103008 H 0.0 **** 0.06
28570 H 19.942520015658907 107.05643631209097 34.116044007581884 H 0.0 **** 0.06
28571 C 82.02020982368427 38.95995241373589 105.98443814840866 C 0.0 **** -0.24
28572 H 82.93211812809761 39.46860317123742 105.66980936223395 H 0.0 **** 0.06
28573 H 82.2347174207474 37.906099800279776 106.1602638623741 H 0.0 **** 0.06
28574 H 81.26525165511619 39.052737585995715 105.20432240342132 H 0.0 **** 0.06
28575 H 81.65058081840401 39.415132767765954 106.90322092509098 H 0.0 **** 0.06
28576 C 42.68127543932809 51.578317073368 16.969849035740737 C 0.0 **** -0.24
28577 H 42.69955772980407 51.270995494304316 15.924394235496663 H 0.0 **** 0.06
28578 H 41.68655149833603 51.40190111514758 17.382212212329506 H 0.0 **** 0.06
28579 H 42.92105509076629 52.63919995107742 17.04057233494953 H 0.0 **** 0.06
28580 H 43.414919441135396 51.0011975519233 17.531273117382398 H 0.0 **** 0.06
28581 C 11.357974204292166 77.42506523219856 2.5979960989846376 C 0.0 **** -0.24
28582 H 11.486123676800197 76.34375436316907 2.546750791637834 H 0.0 **** 0.06
28583 H 12.265860847326266 77.91550244244775 2.2441220408810807 H 0.0 **** 0.06
28584 H 11.163463192629283 77.71951341674367 3.628568853564005 H 0.0 **** 0.06
28585 H 10.5169225374114 77.72029369078516 1.9700240860565543 H 0.0 **** 0.06
28586 C 90.75848396402324 76.5880675144382 83.7621776676636 C 0.0 **** -0.24
28587 H 90.21443870793132 77.24007267572881 83.07873448194113 H 0.0 **** 0.06
28588 H 91.12651287927821 77.1718952103875 84.60605296145866 H 0.0 **** 0.06
28589 H 91.5999055360885 76.13481637146862 83.23883203717111 H 0.0 **** 0.06
28590 H 90.09177439758975 75.80513062790735 84.12467564699085 H 0.0 **** 0.06
28591 C 84.74782717506395 89.01011313476306 39.33877969826029 C 0.0 **** -0.24
28592 H 85.49567980978023 88.44324453651268 39.89403732360712 H 0.0 **** 0.06
28593 H 85.21722499577795 89.48402502377832 38.4774135206733 H 0.0 **** 0.06
28594 H 84.31737075656558 89.77412112618305 39.98593624691065 H 0.0 **** 0.06
28595 H 83.96159403823467 88.33586175078136 38.99958791725579 H 0.0 **** 0.06
28596 C 41.42486814973557 14.93295193189698 49.687960450639395 C 0.0 **** -0.24
28597 H 42.04792877357045 14.956407711069033 48.79411604728598 H 0.0 **** 0.06
28598 H 40.60089048323704 15.637252441888933 49.57579040093745 H 0.0 **** 0.06
28599 H 42.02422123207219 15.209504924695466 50.555602025271085 H 0.0 **** 0.06
28600 H 41.02728481848038 13.92806985470969 49.8273053926973 H 0.0 **** 0.06
28601 C 97.06769345776976 100.72460267908002 77.52184791814062 C 0.0 **** -0.24
28602 H 98.10791056573927 100.4695973969664 77.72689983030784 H 0.0 **** 0.06
28603 H 97.02163964129792 101.40717729442055 76.67362656681962 H 0.0 **** 0.06
28604 H 96.63211775350753 101.20480824600064 78.39890268023314 H 0.0 **** 0.06
28605 H 96.51063318030273 99.81706451449257 77.29033150550885 H 0.0 **** 0.06
28606 C 92.33757802472334 100.70365570014407 34.398923845584825 C 0.0 **** -0.24
28607 H 91.40855674002194 100.57380133191218 34.955156638558776 H 0.0 **** 0.06
28608 H 92.33369927876575 101.67685673007067 33.908212876535686 H 0.0 **** 0.06
28609 H 92.42290100486133 99.91759808096094 33.64817954741143 H 0.0 **** 0.06
28610 H 93.18258363748026 100.64448778352222 35.085072691997176 H 0.0 **** 0.06
28611 C 67.59863255291316 28.47489666583001 104.39671023089039 C 0.0 **** -0.24
28612 H 68.56350268743097 28.630392263163166 103.91380722733231 H 0.0 **** 0.06
28613 H 67.6243160025075 27.54737455374324 104.96897648504353 H 0.0 **** 0.06
28614 H 66.81883112106544 28.412153601066592 103.63685388716084 H 0.0 **** 0.06
28615 H 67.38786571064446 29.310061042136176 105.06500236877542 H 0.0 **** 0.06
28616 C 33.47060297927259 41.87490505235702 61.124525596234406 C 0.0 **** -0.24
28617 H 32.90640350610825 41.107410574722024 60.59353048806656 H 0.0 **** 0.06
28618 H 32.97106604695463 42.10702651546109 62.06519346720262 H 0.0 **** 0.06
28619 H 33.52759275956738 42.7737857536591 60.510314536495144 H 0.0 **** 0.06
28620 H 34.47699211349672 41.509324265769436 61.32780898340147 H 0.0 **** 0.06
28621 C 75.46367365517015 3.782437495838437 90.91763500762242 C 0.0 **** -0.24
28622 H 75.58341089755393 4.6997072229022905 90.34081804026081 H 0.0 **** 0.06
28623 H 76.26467803880209 3.7091218916582847 91.65318265982278 H 0.0 **** 0.06
28624 H 75.50455347324402 2.923975466963512 90.24754224240381 H 0.0 **** 0.06
28625 H 74.5003160293117 3.7991045117571076 91.42956662472916 H 0.0 **** 0.06
28626 C 20.18458237274919 93.32894372754393 113.29063124822483 C 0.0 **** -0.24
28627 H 20.1465588763285 94.40774016360518 113.1351188919225 H 0.0 **** 0.06
28628 H 21.10839795405542 93.06985535025075 113.80920199248715 H 0.0 **** 0.06
28629 H 20.153401364574194 92.8213133081174 112.32681247480986 H 0.0 **** 0.06
28630 H 19.330481430236716 93.01843313485625 113.89290306088424 H 0.0 **** 0.06
28631 C 99.38658349079729 5.994903908577584 76.52303585564128 C 0.0 **** -0.24
28632 H 100.40449648254666 5.688267501506289 76.28525290789813 H 0.0 **** 0.06
28633 H 98.91091356392526 5.229202785709845 77.13692227832708 H 0.0 **** 0.06
28634 H 98.82044516165489 6.123308340991471 75.59968742101222 H 0.0 **** 0.06
28635 H 99.40830273246895 6.93791404140741 77.06963785108609 H 0.0 **** 0.06
28636 C 55.12528457990885 78.39344933551268 29.545490030363226 C 0.0 **** -0.24
28637 H 55.81725004050696 77.5511334000135 29.54320256429942 H 0.0 **** 0.06
28638 H 54.689545329390626 78.5082998328142 28.552513556578546 H 0.0 **** 0.06
28639 H 55.66155219801561 79.30413720431898 29.81448495454204 H 0.0 **** 0.06
28640 H 54.33279075172254 78.21022690490389 30.271759046033154 H 0.0 **** 0.06
28641 C 22.672908290226687 86.70757079570751 81.45216759820829 C 0.0 **** -0.24
28642 H 22.71731603456945 87.22695116066365 80.49463923282826 H 0.0 **** 0.06
28643 H 22.053133015797243 85.81512706653137 81.35250571753795 H 0.0 **** 0.06
28644 H 22.23993187836291 87.36767903241577 82.20349913251334 H 0.0 **** 0.06
28645 H 23.678711388210132 86.41924282143896 81.75664851084719 H 0.0 **** 0.06
28646 C 22.537824025205794 80.67603105215922 65.69053931347298 C 0.0 **** -0.24
28647 H 23.188756555236466 81.08755885496154 64.91888894814298 H 0.0 **** 0.06
28648 H 21.647284212624754 80.2537353882028 65.22698061708371 H 0.0 **** 0.06
28649 H 22.248673332891173 81.46782975022852 66.38147798246047 H 0.0 **** 0.06
28650 H 23.069538415579103 79.89456744311879 66.2350795717044 H 0.0 **** 0.06
28651 C 57.860115319062686 7.706755189307074 27.643824958359602 C 0.0 **** -0.24
28652 H 57.232781488077705 7.68913012742216 26.75248709345263 H 0.0 **** 0.06
28653 H 58.79940956334838 7.194796626298526 27.43681226091175 H 0.0 **** 0.06
28654 H 57.34374077245502 7.202417310485885 28.460987257263866 H 0.0 **** 0.06
28655 H 58.06258151064188 8.740526272948259 27.924585291587533 H 0.0 **** 0.06
28656 C 82.34645581458585 92.39415120329579 28.103618948529153 C 0.0 **** -0.24
28657 H 81.79421136306269 91.60011524992919 28.60550188514444 H 0.0 **** 0.06
28658 H 81.64466021052175 93.10472000783136 27.66586729264195 H 0.0 **** 0.06
28659 H 82.9669751873742 91.96464530296942 27.317020606000767 H 0.0 **** 0.06
28660 H 82.98006462998899 92.90872472509778 28.82674243286519 H 0.0 **** 0.06
28661 C 91.43630706207068 61.39208432578363 37.501872253842805 C 0.0 **** -0.24
28662 H 90.84289098598725 60.48435524683569 37.61445055111703 H 0.0 **** 0.06
28663 H 90.99054727550427 62.19300709107023 38.09267302792584 H 0.0 **** 0.06
28664 H 91.45929508838307 61.68368217839418 36.45241395075493 H 0.0 **** 0.06
28665 H 92.45255132670658 61.20604397712134 37.849150427078975 H 0.0 **** 0.06
28666 C 0.06346602952585556 92.6175280054797 23.38255752868477 C 0.0 **** -0.24
28667 H -0.6840376815517857 91.95638130454006 22.94441510745557 H 0.0 **** 0.06
28668 H 0.9613554534470694 92.61008733547848 22.76393258448212 H 0.0 **** 0.06
28669 H 0.31098632813625215 92.27177630798013 24.38622381916926 H 0.0 **** 0.06
28670 H -0.3338084708705935 93.63046558707254 23.434034623117725 H 0.0 **** 0.06
28671 C 31.152131357891513 30.95311661026514 2.9841290431472203 C 0.0 **** -0.24
28672 H 31.079020928247417 30.67021524159793 1.9336771041984946 H 0.0 **** 0.06
28673 H 31.931488047921867 31.705644338550492 3.103371280850439 H 0.0 **** 0.06
28674 H 31.398414671266117 30.07459459852339 3.580226468671384 H 0.0 **** 0.06
28675 H 30.198416366605862 31.362353677227283 3.3161625453006423 H 0.0 **** 0.06
28676 C 53.51062634459052 64.60160304571872 4.193711154739997 C 0.0 **** -0.24
28677 H 52.93919212931327 63.934138310171875 3.549401240046002 H 0.0 **** 0.06
28678 H 52.825695685869896 65.19386041844979 4.801260990750592 H 0.0 **** 0.06
28679 H 54.11945707257031 65.26581910198729 3.5799630349654272 H 0.0 **** 0.06
28680 H 54.15679898348302 64.01296367317534 4.844319423857888 H 0.0 **** 0.06
28681 C 91.2294272597112 81.55754079929824 3.599352981188943 C 0.0 **** -0.24
28682 H 91.29529647429297 80.64555299774838 3.006332720536747 H 0.0 **** 0.06
28683 H 91.94536517398467 82.28898202898512 3.2216648756811708 H 0.0 **** 0.06
28684 H 91.4579254083207 81.33105009849561 4.640924931909382 H 0.0 **** 0.06
28685 H 90.22128691234525 81.96500297242017 3.5288538435788155 H 0.0 **** 0.06
28686 C 3.3448743883614895 38.37842734054013 106.1825673023579 C 0.0 **** -0.24
28687 H 4.254902562994602 37.836775140146784 106.44029033428103 H 0.0 **** 0.06
28688 H 2.4891609013480434 37.896370106682184 106.65652391572026 H 0.0 **** 0.06
28689 H 3.212662972877183 38.372253676068226 105.10086976962025 H 0.0 **** 0.06
28690 H 3.4224664060650127 39.40773012307366 106.53447479619383 H 0.0 **** 0.06
28691 C 37.52476803626821 18.88509953573822 7.407931379704763 C 0.0 **** -0.24
28692 H 38.528193707313974 19.200929522133208 7.693509565411972 H 0.0 **** 0.06
28693 H 37.572406012397806 17.901617172476875 6.940197877916688 H 0.0 **** 0.06
28694 H 37.10425827261133 19.60333861357634 6.703123748885389 H 0.0 **** 0.06
28695 H 36.89346630549629 18.834960179574125 8.295384901747894 H 0.0 **** 0.06
28696 C 24.354343058517088 48.44279646621001 13.007159604827734 C 0.0 **** -0.24
28697 H 24.58387104394683 47.43453064439643 12.663429401677462 H 0.0 **** 0.06
28698 H 23.737463472419364 48.94773788617917 12.263274306872717 H 0.0 **** 0.06
28699 H 25.280417204843786 48.998447227139906 13.14925595727459 H 0.0 **** 0.06
28700 H 23.81426962613915 48.389533235881316 13.952133273944156 H 0.0 **** 0.06
28701 C 39.634969478158496 17.54800372859819 85.06995928280844 C 0.0 **** -0.24
28702 H 39.20668074356087 16.585979265957604 84.78942547044545 H 0.0 **** 0.06
28703 H 39.75477266801181 17.589487513150374 86.15299339979697 H 0.0 **** 0.06
28704 H 38.97173710227651 18.349290430586507 84.74605201226689 H 0.0 **** 0.06
28705 H 40.60707981654741 17.664871835616395 84.59175864927977 H 0.0 **** 0.06
28706 C 14.021468679185631 58.522538630550855 80.02276917128889 C 0.0 **** -0.24
28707 H 15.001494873434211 58.998519065010385 80.04152541125353 H 0.0 **** 0.06
28708 H 13.265565227435474 59.23411219011592 80.35298352475803 H 0.0 **** 0.06
28709 H 14.025017422592953 57.658811236897066 80.68953456689951 H 0.0 **** 0.06
28710 H 13.79539954047641 58.19600201006597 79.00733124778056 H 0.0 **** 0.06
28711 C 3.963382992759776 0.5828804659275733 103.42000806505345 C 0.0 **** -0.24
28712 H 3.4929382464564185 -0.375801774081836 103.63938828543685 H 0.0 **** 0.06
28713 H 4.58069492501096 0.8864462652698961 104.26640065919753 H 0.0 **** 0.06
28714 H 3.192635653784336 1.3330742833621798 103.2445136104222 H 0.0 **** 0.06
28715 H 4.5867580675434425 0.4863559967430007 102.53135792621582 H 0.0 **** 0.06
28716 C 58.84817511194501 95.97198481710858 103.62504387259816 C 0.0 **** -0.24
28717 H 57.959922107622674 96.53721078556009 103.34639598328761 H 0.0 **** 0.06
28718 H 59.7321032872037 96.5971364177356 103.49476314107244 H 0.0 **** 0.06
28719 H 58.93100246913991 95.08903830170102 102.99089431430883 H 0.0 **** 0.06
28720 H 58.770313745322994 95.66378646520863 104.66810714503981 H 0.0 **** 0.06
28721 C 64.609884850322 11.504632341178421 62.112619722992605 C 0.0 **** -0.24
28722 H 65.02117474269444 10.52141281609272 62.34061650017969 H 0.0 **** 0.06
28723 H 65.18275253424085 12.269403447602087 62.63841950056303 H 0.0 **** 0.06
28724 H 63.56852627652353 11.545379061283143 62.433732852902324 H 0.0 **** 0.06
28725 H 64.66539873945756 11.681208411437751 61.0390837076624 H 0.0 **** 0.06
28726 C 56.42201219065869 40.49366895670178 59.58775702436388 C 0.0 **** -0.24
28727 H 56.00346511585403 39.4959622383858 59.725718220310085 H 0.0 **** 0.06
28728 H 56.009413112693174 40.93727576519433 58.68116803180966 H 0.0 **** 0.06
28729 H 57.5057031939009 40.422515482309535 59.49802123144207 H 0.0 **** 0.06
28730 H 56.1681576175061 41.115888331630174 60.445837701139325 H 0.0 **** 0.06
28731 C 27.972847722273556 2.722583157234908 106.66690686384526 C 0.0 **** -0.24
28732 H 28.128249124328207 1.6794970470612611 106.38870656050445 H 0.0 **** 0.06
28733 H 28.060142961094236 2.8265051737209035 107.74838192345415 H 0.0 **** 0.06
28734 H 26.977850476596643 3.038136119282541 106.35044287438606 H 0.0 **** 0.06
28735 H 28.723577962292858 3.3431406684445903 106.17899605343459 H 0.0 **** 0.06
28736 C 43.21353810537346 71.0324858470455 74.88940305012449 C 0.0 **** -0.24
28737 H 43.42161217832012 69.96294992657445 74.87545281797424 H 0.0 **** 0.06
28738 H 42.481571006631384 71.24940405056418 75.66790498236878 H 0.0 **** 0.06
28739 H 42.81590993292565 71.33745713118418 73.9215787431196 H 0.0 **** 0.06
28740 H 44.13460217502788 71.57928286164179 75.09241187870396 H 0.0 **** 0.06
28741 C 20.86586315554885 105.32387204453043 113.84819494763019 C 0.0 **** -0.24
28742 H 21.630816729913747 106.02329837148139 114.18316406322054 H 0.0 **** 0.06
28743 H 21.084608369531054 105.00875555076026 112.82745123072431 H 0.0 **** 0.06
28744 H 19.890699915117807 105.80986114632925 113.878539610455 H 0.0 **** 0.06
28745 H 20.857730716662132 104.45265993887875 114.50368554332152 H 0.0 **** 0.06
28746 C 63.37511087650148 56.979722575443475 97.45677292573214 C 0.0 **** -0.24
28747 H 64.31886020811987 56.752119318323594 97.95236702299547 H 0.0 **** 0.06
28748 H 63.383366324638075 56.56304482803921 96.45000383138586 H 0.0 **** 0.06
28749 H 63.24513134474532 58.06085986423318 97.40258739661294 H 0.0 **** 0.06
28750 H 62.5521489363918 56.543446997281535 98.02432108295483 H 0.0 **** 0.06
28751 C 38.531100101635985 102.23392936696649 73.67065649803654 C 0.0 **** -0.24
28752 H 38.24741085389723 101.24148423972747 73.32273331417625 H 0.0 **** 0.06
28753 H 38.50722513075279 102.93311188702228 72.83474301698138 H 0.0 **** 0.06
28754 H 39.538101080863875 102.19851632796849 74.08716404581632 H 0.0 **** 0.06
28755 H 37.832267497691824 102.56267656294835 74.4401373957523 H 0.0 **** 0.06
28756 C 94.37808403026497 72.1555454520917 19.181596317031364 C 0.0 **** -0.24
28757 H 94.36871167511914 71.0707461460446 19.07159982441496 H 0.0 **** 0.06
28758 H 94.60394344330015 72.4131327169901 20.21640349017261 H 0.0 **** 0.06
28759 H 93.40112682204929 72.55590993653846 18.910776366159496 H 0.0 **** 0.06
28760 H 95.13877704369597 72.57974101077315 18.526647624211222 H 0.0 **** 0.06
28761 C 51.69651262893859 24.63321453504011 8.804554525544432 C 0.0 **** -0.24
28762 H 51.297560271939915 24.385458853744524 9.789029403982582 H 0.0 **** 0.06
28763 H 51.482624115488875 23.819407873444902 8.1122230060803 H 0.0 **** 0.06
28764 H 52.77460749653102 24.778385870991514 8.875019457759421 H 0.0 **** 0.06
28765 H 51.22898028328359 25.550428866112497 8.44421160207753 H 0.0 **** 0.06
28766 C 88.38655081327927 22.089177393907477 78.77737889929142 C 0.0 **** -0.24
28767 H 88.22050443594897 22.939659505770322 79.43889485102582 H 0.0 **** 0.06
28768 H 87.56019083318549 21.384758143453155 78.87634000625336 H 0.0 **** 0.06
28769 H 89.31967203306317 21.595591707942617 79.04807335131088 H 0.0 **** 0.06
28770 H 88.44560982086837 22.438091648295966 77.74632097530761 H 0.0 **** 0.06
28771 C 82.40113094488778 113.19419630164356 1.936593034044705 C 0.0 **** -0.24
28772 H 82.35678071889213 113.72392141926441 2.888287271935809 H 0.0 **** 0.06
28773 H 81.39097852420065 112.92999189199853 1.6215283593818413 H 0.0 **** 0.06
28774 H 82.99507919573168 112.28747108044234 2.0521283637557417 H 0.0 **** 0.06
28775 H 82.8600431843757 113.83669490763022 1.185221192652051 H 0.0 **** 0.06
28776 C 72.98941552823368 15.362677304085167 72.4437640325329 C 0.0 **** -0.24
28777 H 73.59163236440622 15.182054381195172 73.33463262189494 H 0.0 **** 0.06
28778 H 71.99002942719102 14.952404906915802 72.59352923613534 H 0.0 **** 0.06
28779 H 73.45639999575923 14.879795406932686 71.58583507946685 H 0.0 **** 0.06
28780 H 72.91950394552958 16.43497935783094 72.26434786149005 H 0.0 **** 0.06
28781 C 6.842967891441873 1.9861248966193177 65.59923513738379 C 0.0 **** -0.24
28782 H 7.575557781973259 1.3854208020366965 66.13969723982345 H 0.0 **** 0.06
28783 H 7.2556437579694375 2.976436167647421 65.4085397550296 H 0.0 **** 0.06
28784 H 5.937123162833899 2.0768817679471123 66.19734046438974 H 0.0 **** 0.06
28785 H 6.606290632061132 1.5019644401511645 64.65160857609024 H 0.0 **** 0.06
28786 C 105.2979365858419 85.76485615772393 31.401455940196 C 0.0 **** -0.24
28787 H 106.2212383964748 85.22487205145492 31.610763065859487 H 0.0 **** 0.06
28788 H 104.5272586264185 85.45222428298487 32.106958188672024 H 0.0 **** 0.06
28789 H 104.9713305099543 85.54631933430804 30.38529865918167 H 0.0 **** 0.06
28790 H 105.47264058411157 86.8353714592229 31.50505617344072 H 0.0 **** 0.06
28791 C 48.16965957228422 87.13153790019065 24.576813417182734 C 0.0 **** -0.24
28792 H 47.306593844767946 87.42968782371989 23.98123575711952 H 0.0 **** 0.06
28793 H 48.994784162953806 86.86933755613789 23.91493962390956 H 0.0 **** 0.06
28794 H 47.90737602015278 86.2684995691623 25.190230758216785 H 0.0 **** 0.06
28795 H 48.468613477566976 87.95761545474772 25.222014926968768 H 0.0 **** 0.06
28796 C 85.46001933321162 76.88773859389616 66.15873420369606 C 0.0 **** -0.24
28797 H 85.51693153291643 76.21594385858859 67.01494817433145 H 0.0 **** 0.06
28798 H 86.46710262355111 77.15356182635685 65.83903942489512 H 0.0 **** 0.06
28799 H 84.91743864282236 77.78999174839838 66.44158047619858 H 0.0 **** 0.06
28800 H 84.937084594514 76.3907608400319 65.34115914942235 H 0.0 **** 0.06
28801 C 109.3694635765466 84.40689314465908 102.6888230497861 C 0.0 **** -0.24
28802 H 109.4084883574262 85.0090476071482 103.59638495162073 H 0.0 **** 0.06
28803 H 109.72991743805741 83.3997912530283 102.90483115939423 H 0.0 **** 0.06
28804 H 109.99798723833939 84.86188844617209 101.92343176160841 H 0.0 **** 0.06
28805 H 108.34136593992596 84.35512050853868 102.33051676350797 H 0.0 **** 0.06
28806 C 44.38415818442695 77.50420945847566 55.5034292697237 C 0.0 **** -0.24
28807 H 44.24985855581406 76.56324505809715 54.969347632974724 H 0.0 **** 0.06
28808 H 43.98789264060383 78.32329629967745 54.90201426632852 H 0.0 **** 0.06
28809 H 45.44498811781864 77.6693771436415 55.68895819775362 H 0.0 **** 0.06
28810 H 43.85158761789876 77.46010112723724 56.45351590199422 H 0.0 **** 0.06
28811 C 29.985975637972672 42.11912764553466 90.57887049154863 C 0.0 **** -0.24
28812 H 29.127879467334424 42.684007011459926 90.21536562665369 H 0.0 **** 0.06
28813 H 29.824030417970846 41.05613793768035 90.39962710349283 H 0.0 **** 0.06
28814 H 30.108564126400125 42.29307758576317 91.64793598989968 H 0.0 **** 0.06
28815 H 30.883970352338196 42.44505977688391 90.0533066657461 H 0.0 **** 0.06
28816 C 1.020617276071988 97.90434357769277 27.383306782524954 C 0.0 **** -0.24
28817 H 1.4799994279454154 97.97551323618924 26.397739212675333 H 0.0 **** 0.06
28818 H 1.7785391167199691 98.06768474425627 28.149493903703387 H 0.0 **** 0.06
28819 H 0.5830465761240475 96.91381403574044 27.509820389569285 H 0.0 **** 0.06
28820 H 0.24088398349857698 98.66036229458513 27.47617362415187 H 0.0 **** 0.06
28821 C 9.036009655761205 115.9017020799787 7.816255136421221 C 0.0 **** -0.24
28822 H 8.816087031556748 114.91023379906024 8.210912185135875 H 0.0 **** 0.06
28823 H 8.14578604961008 116.52612855964584 7.887008351459578 H 0.0 **** 0.06
28824 H 9.339087063094155 115.81794131651854 6.772112985765354 H 0.0 **** 0.06
28825 H 9.843816062869877 116.35218910319593 8.39382232722382 H 0.0 **** 0.06
28826 C 111.08654637537708 51.81352938727167 100.38633100986375 C 0.0 **** -0.24
28827 H 110.02352624597117 51.86305048458152 100.62644667828607 H 0.0 **** 0.06
28828 H 111.24065232276553 52.13566064214285 99.35653133994047 H 0.0 **** 0.06
28829 H 111.43749541502332 50.78800730378279 100.50317622949333 H 0.0 **** 0.06
28830 H 111.64154427587077 52.46726965965044 101.05874643870982 H 0.0 **** 0.06
28831 C 55.50598387645516 64.49255405858071 92.7301629048051 C 0.0 **** -0.24
28832 H 56.388300877792176 64.47723339312012 93.37020083766919 H 0.0 **** 0.06
28833 H 54.77341451892261 65.18993776127775 93.13802039542622 H 0.0 **** 0.06
28834 H 55.07154320744405 63.49320472972738 92.68588139788692 H 0.0 **** 0.06
28835 H 55.790462449271786 64.8090750929992 91.72715598778905 H 0.0 **** 0.06
28836 C 75.84992868395449 19.62968811938424 112.56323220833184 C 0.0 **** -0.24
28837 H 74.9658615022521 20.150530236563995 112.92977035110624 H 0.0 **** 0.06
28838 H 75.62884170759656 18.567301473487618 112.45780095410893 H 0.0 **** 0.06
28839 H 76.66926975767285 19.761849100138335 113.27030736031452 H 0.0 **** 0.06
28840 H 76.13713790462879 20.038785631605947 111.59406570983366 H 0.0 **** 0.06
28841 C 41.24784505710478 72.25557956699353 81.75670705270939 C 0.0 **** -0.24
28842 H 41.71088914580713 73.21123466088625 81.5122749976795 H 0.0 **** 0.06
28843 H 40.16623959947705 72.38163965881212 81.82007215824736 H 0.0 **** 0.06
28844 H 41.6290145554654 71.9023861644026 82.7148697677686 H 0.0 **** 0.06
28845 H 41.48438627717857 71.52794278037041 80.98148036692956 H 0.0 **** 0.06
28846 C 3.757081540155127 56.010269710000756 112.50466445011611 C 0.0 **** -0.24
28847 H 4.81538180397672 56.26041977115386 112.58591784206325 H 0.0 **** 0.06
28848 H 3.5797856327100703 55.03289804586535 112.95255204697808 H 0.0 **** 0.06
28849 H 3.470067699620529 55.98657832331682 111.45287768954725 H 0.0 **** 0.06
28850 H 3.1653968869245546 56.76283818365681 113.02591632840854 H 0.0 **** 0.06
28851 C 21.776719138204783 58.97562744869441 35.66194183931265 C 0.0 **** -0.24
28852 H 21.945298723730218 59.933049637705466 36.153873918927076 H 0.0 **** 0.06
28853 H 21.16751304780422 58.339599264305605 36.3041782785333 H 0.0 **** 0.06
28854 H 22.734524074469675 58.49078783649105 35.472326897072065 H 0.0 **** 0.06
28855 H 21.259868706305326 59.139316187203434 34.71603422527039 H 0.0 **** 0.06
28856 C 58.09912870289959 56.03615273879511 83.27347156853165 C 0.0 **** -0.24
28857 H 57.64829860147259 55.99388536740894 84.26551910019273 H 0.0 **** 0.06
28858 H 58.11449797084906 55.03700867674759 82.83841701371526 H 0.0 **** 0.06
28859 H 59.118335980007856 56.41463129802196 83.35349706102036 H 0.0 **** 0.06
28860 H 57.513600932139994 56.70055045994046 82.63727859194776 H 0.0 **** 0.06
28861 C 89.18991602381428 101.45045240990851 67.97617595298371 C 0.0 **** -0.24
28862 H 89.05067471705539 102.12083018853326 68.82481668778209 H 0.0 **** 0.06
28863 H 90.25605508036676 101.31881741445608 67.78841717553618 H 0.0 **** 0.06
28864 H 88.71563951458454 101.87821377245984 67.09347129920428 H 0.0 **** 0.06
28865 H 88.73750823864759 100.48384079450977 68.20043652312415 H 0.0 **** 0.06
28866 C 31.577622677919294 112.14888472661366 85.24606638579951 C 0.0 **** -0.24
28867 H 32.250961678987665 112.99748829979839 85.3689490469286 H 0.0 **** 0.06
28868 H 32.1464646179369 111.277705922275 84.92041792586178 H 0.0 **** 0.06
28869 H 30.821368098299388 112.39037996807298 84.49874741188691 H 0.0 **** 0.06
28870 H 31.091226846673067 111.93045076351332 86.19739352318692 H 0.0 **** 0.06
28871 C 55.44613144562658 73.29024302296972 42.456006793583754 C 0.0 **** -0.24
28872 H 55.75442966299801 72.36180659067935 41.973425548393806 H 0.0 **** 0.06
28873 H 56.25917684607913 74.01412431295802 42.403943473273955 H 0.0 **** 0.06
28874 H 55.20110506024622 73.09252847005166 43.50006457059837 H 0.0 **** 0.06
28875 H 54.56901729568119 73.6888674485271 41.94687237885802 H 0.0 **** 0.06
28876 C 98.3319358837146 27.72763183903683 115.17703309847667 C 0.0 **** -0.24
28877 H 99.25957383847708 28.114670938861877 115.59737825619604 H 0.0 **** 0.06
28878 H 97.48942708602192 28.293551572467805 115.57362519836028 H 0.0 **** 0.06
28879 H 98.22236542469136 26.676684187230904 115.44574099901013 H 0.0 **** 0.06
28880 H 98.35689517455097 27.82356006826626 114.0920850368046 H 0.0 **** 0.06
28881 C 45.55097207210222 19.522689040504357 75.06207842217674 C 0.0 **** -0.24
28882 H 45.9532315496705 18.598745419775735 74.64849896998018 H 0.0 **** 0.06
28883 H 45.44608039300275 20.261846778815286 74.26709402045134 H 0.0 **** 0.06
28884 H 46.22899649963873 19.90479512170075 75.82605449852628 H 0.0 **** 0.06
28885 H 44.57612877508122 19.326852393409503 75.50789011919935 H 0.0 **** 0.06
28886 C 89.2675841580774 60.92666223446959 13.855982976100453 C 0.0 **** -0.24
28887 H 88.17922479637814 60.9998811324494 13.859926231539767 H 0.0 **** 0.06
28888 H 89.66854217674977 61.528614702035696 13.040572378401396 H 0.0 **** 0.06
28889 H 89.5608795720995 59.88629060120533 13.71857419917513 H 0.0 **** 0.06
28890 H 89.65896999400034 61.29243138873339 14.805386273264183 H 0.0 **** 0.06
28891 C 25.96789940562533 12.16162243005978 2.1990071045376194 C 0.0 **** -0.24
28892 H 25.925858433275693 11.073960178472483 2.1373308171437415 H 0.0 **** 0.06
28893 H 26.82320718704389 12.458222028900124 2.8066532748794515 H 0.0 **** 0.06
28894 H 25.05121730208498 12.534876517114192 2.655573485532795 H 0.0 **** 0.06
28895 H 26.07069014848736 12.579317272934777 1.1977346111958536 H 0.0 **** 0.06
28896 C 50.1189415039255 32.2776037066796 30.472101199108295 C 0.0 **** -0.24
28897 H 49.42045865454861 33.11114791053336 30.397112302815884 H 0.0 **** 0.06
28898 H 49.58376420810242 31.340368317656214 30.31555180859874 H 0.0 **** 0.06
28899 H 50.57591388978943 32.27547190810293 31.461062865827472 H 0.0 **** 0.06
28900 H 50.89402650249741 32.3855996067081 29.713031562411402 H 0.0 **** 0.06
28901 C 20.999296214363245 65.05201489525899 16.264385066069224 C 0.0 **** -0.24
28902 H 20.857111468918813 64.00448351243006 15.995334591251577 H 0.0 **** 0.06
28903 H 21.60235074564237 65.54340348205193 15.500908780071228 H 0.0 **** 0.06
28904 H 21.508122766101835 65.11390870830581 17.226090957949964 H 0.0 **** 0.06
28905 H 20.02899938809007 65.54312388203363 16.33260193735569 H 0.0 **** 0.06
28906 C 63.711364676606195 75.74866243742684 72.53635025868306 C 0.0 **** -0.24
28907 H 63.784780651093115 76.51169648535952 73.31110033198067 H 0.0 **** 0.06
28908 H 64.29156309482232 74.87382324000512 72.83209305943626 H 0.0 **** 0.06
28909 H 64.10167200806097 76.14332895075424 71.59871971520127 H 0.0 **** 0.06
28910 H 62.666993341582156 75.46495586227321 72.40377693462528 H 0.0 **** 0.06
28911 C 17.875970977252507 97.43654275303993 90.33660513458022 C 0.0 **** -0.24
28912 H 17.17020535330181 97.85244233052804 89.61832391023319 H 0.0 **** 0.06
28913 H 18.022165514981936 96.3754572351157 90.13007102378288 H 0.0 **** 0.06
28914 H 17.483134885574174 97.55906199581896 91.34566180375379 H 0.0 **** 0.06
28915 H 18.8295554933367 97.95797457725688 90.25206524909373 H 0.0 **** 0.06
28916 C 87.40878743704644 19.320247369776695 75.76585822356935 C 0.0 **** -0.24
28917 H 86.42506132235641 19.64584689675911 76.10556028690445 H 0.0 **** 0.06
28918 H 88.16458245744612 19.64146736497304 76.48294760830117 H 0.0 **** 0.06
28919 H 87.62129503658097 19.76109812124176 74.79156015475093 H 0.0 **** 0.06
28920 H 87.42318213219671 18.23334093893905 75.68396336688835 H 0.0 **** 0.06
28921 C 91.15200513211192 26.8457563368966 11.919321123296697 C 0.0 **** -0.24
28922 H 90.62420049615639 27.672458252959814 12.393787884216124 H 0.0 **** 0.06
28923 H 91.86061430475968 27.238545012373805 11.189250081866561 H 0.0 **** 0.06
28924 H 90.43394415034808 26.19800020892373 11.417188734660158 H 0.0 **** 0.06
28925 H 91.68922008379838 26.27542957927936 12.67718723733779 H 0.0 **** 0.06
28926 C 113.83552955619872 109.90428140241559 81.962959947466 C 0.0 **** -0.24
28927 H 113.30863671445796 109.10965163722409 81.4335158093092 H 0.0 **** 0.06
28928 H 113.43538702637893 109.99532792773473 82.97342821355915 H 0.0 **** 0.06
28929 H 113.6983170112106 110.84633796349787 81.43087087403183 H 0.0 **** 0.06
28930 H 114.89737186023551 109.66656649779055 82.01126108602494 H 0.0 **** 0.06
28931 C 33.245884056268636 20.581299946243927 114.24504674342757 C 0.0 **** -0.24
28932 H 33.17315846390423 20.563404481102207 115.33231454632995 H 0.0 **** 0.06
28933 H 33.552133926269676 19.598734535462807 113.88535268831816 H 0.0 **** 0.06
28934 H 33.98268518001592 21.324999523374736 113.94216793219456 H 0.0 **** 0.06
28935 H 32.27543067542973 20.83709973761068 113.82059507953879 H 0.0 **** 0.06
28936 C 16.387496325928623 39.696269698778195 112.12567361126429 C 0.0 **** -0.24
28937 H 15.886371012117593 40.529082462607846 111.63148243230579 H 0.0 **** 0.06
28938 H 15.771025632373863 38.800263436176294 112.04308241649034 H 0.0 **** 0.06
28939 H 16.540524355019073 39.93673050394557 113.1773701132301 H 0.0 **** 0.06
28940 H 17.352348425271742 39.51871324051385 111.64907548867166 H 0.0 **** 0.06
28941 C 114.14318929286101 52.48140257611951 31.94926530978421 C 0.0 **** -0.24
28942 H 113.55213795605499 52.46566046254455 31.03466488203091 H 0.0 **** 0.06
28943 H 115.18418835715984 52.694388142430455 31.706074735523543 H 0.0 **** 0.06
28944 H 114.07526643337064 51.51137218815035 32.44187681334395 H 0.0 **** 0.06
28945 H 113.76000287459686 53.254489935924255 32.61633182450157 H 0.0 **** 0.06
28946 C 30.63178107050902 3.214580301846709 79.61437351893571 C 0.0 **** -0.24
28947 H 29.705116981012225 3.7881502682740376 79.63636708531762 H 0.0 **** 0.06
28948 H 31.468044889168766 3.8854590174475447 79.4139209967806 H 0.0 **** 0.06
28949 H 30.574175467717282 2.4616573111512565 78.82916523917615 H 0.0 **** 0.06
28950 H 30.78000979652569 2.7258376203974137 80.57655557386528 H 0.0 **** 0.06
28951 C 76.00066521291627 29.394756437876623 6.06190506125435 C 0.0 **** -0.24
28952 H 76.37275151148471 29.231213695275798 5.049960805997216 H 0.0 **** 0.06
28953 H 75.26310773978912 28.62963503667575 6.3055642647149455 H 0.0 **** 0.06
28954 H 75.53746022595988 30.379218192121982 6.124360817102371 H 0.0 **** 0.06
28955 H 76.83023454963724 29.337277574181044 6.766192940086569 H 0.0 **** 0.06
28956 C 51.80240057155797 53.18915417485607 48.070183954700894 C 0.0 **** -0.24
28957 H 51.39687948524709 52.21849453192124 47.786384717184035 H 0.0 **** 0.06
28958 H 50.98469462563156 53.862276325911466 48.33016699173186 H 0.0 **** 0.06
28959 H 52.36425712770219 53.60590610657334 47.23367534791072 H 0.0 **** 0.06
28960 H 52.46393689636092 53.0702314493397 48.92829795188345 H 0.0 **** 0.06
28961 C 24.572083482875314 23.456528328713148 5.25623351580046 C 0.0 **** -0.24
28962 H 23.56043656138789 23.077698818684468 5.108872414383654 H 0.0 **** 0.06
28963 H 25.235332638122145 22.63107486588484 5.515024359983883 H 0.0 **** 0.06
28964 H 24.57166762010263 24.188870473035195 6.063471000433012 H 0.0 **** 0.06
28965 H 24.920705599171015 23.929395076086166 4.337891947803939 H 0.0 **** 0.06
28966 C 65.02020611611329 5.569599556482828 32.894254543142296 C 0.0 **** -0.24
28967 H 65.48121278066151 5.62881031646323 31.908428755826122 H 0.0 **** 0.06
28968 H 64.80248468884866 6.575497007533471 33.25498203518646 H 0.0 **** 0.06
28969 H 65.70329184734021 5.075099508635816 33.58571329530298 H 0.0 **** 0.06
28970 H 64.0941625704757 4.997655611316873 32.82822362302386 H 0.0 **** 0.06
28971 C 1.2961541988300382 70.48847354461006 69.43980670975537 C 0.0 **** -0.24
28972 H 1.1697882448153223 69.42194875040964 69.62885465225736 H 0.0 **** 0.06
28973 H 0.4226874474353508 71.0277423617296 69.80551082054694 H 0.0 **** 0.06
28974 H 1.4057020891909247 70.65687956107155 68.36908258372688 H 0.0 **** 0.06
28975 H 2.187813518548751 70.84548293624022 69.95662930226064 H 0.0 **** 0.06
28976 C 94.06695475981215 87.681920060057 13.049935360973564 C 0.0 **** -0.24
28977 H 95.09508372828068 87.46129424904308 13.335108238206828 H 0.0 **** 0.06
28978 H 93.3985674068434 87.41991812897362 13.869888936697265 H 0.0 **** 0.06
28979 H 93.8024410627649 87.10216812481008 12.165599591416026 H 0.0 **** 0.06
28980 H 93.97205642965906 88.74480342344873 12.82834609834822 H 0.0 **** 0.06
28981 C 29.5102226044498 40.82799342002528 33.59215794878264 C 0.0 **** -0.24
28982 H 30.559277192656758 40.57327037242351 33.741282620361176 H 0.0 **** 0.06
28983 H 29.35025604375781 41.117521451055325 32.55358114840567 H 0.0 **** 0.06
28984 H 29.240866915488184 41.65656356851758 34.24677275727356 H 0.0 **** 0.06
28985 H 28.88931908478275 39.96281348829268 33.82760462674315 H 0.0 **** 0.06
28986 C 105.6875327099724 66.85582319044681 42.21985045208854 C 0.0 **** -0.24
28987 H 104.98778015225501 66.96295559497037 41.392035579259925 H 0.0 **** 0.06
28988 H 105.13417758567246 66.77794956870426 43.15544776476605 H 0.0 **** 0.06
28989 H 106.34360980498377 67.72583735355528 42.25617934481289 H 0.0 **** 0.06
28990 H 106.28572679133589 65.95575133794225 42.07564888191433 H 0.0 **** 0.06
28991 C 78.28106486921348 63.81688025955792 48.028600959972266 C 0.0 **** -0.24
28992 H 77.6111600586807 64.6346739384923 48.29429552238179 H 0.0 **** 0.06
28993 H 78.22912836583015 63.04077436520123 48.7929011997158 H 0.0 **** 0.06
28994 H 79.30199458211348 64.19141561136797 47.95959152483897 H 0.0 **** 0.06
28995 H 77.98174739924542 63.399987228897146 47.0669093175041 H 0.0 **** 0.06
28996 C 2.7352280422611557 48.569997107263376 110.93901259606186 C 0.0 **** -0.24
28997 H 1.6844869821532598 48.50467903307223 110.65844483670762 H 0.0 **** 0.06
28998 H 2.913687904506105 49.51145042092602 111.45876378890354 H 0.0 **** 0.06
28999 H 3.353368580535033 48.52576667999951 110.04289349659092 H 0.0 **** 0.06
29000 H 2.9884103959308845 47.73822277056397 111.59620259011837 H 0.0 **** 0.06
29001 C 75.66959260627813 49.13931724384413 48.59080969811686 C 0.0 **** -0.24
29002 H 74.72439515421785 49.057144344010695 48.05437896237194 H 0.0 **** 0.06
29003 H 76.44661533531726 48.60764896353342 48.04104874569225 H 0.0 **** 0.06
29004 H 75.56263037245272 48.70225639458533 49.58384468035479 H 0.0 **** 0.06
29005 H 75.9438353388603 50.18946817403505 48.684764104908936 H 0.0 **** 0.06
29006 C 90.30727631817905 6.728773719743685 16.718464575644244 C 0.0 **** -0.24
29007 H 89.75024585985346 6.200666235581281 17.491484646764253 H 0.0 **** 0.06
29008 H 89.7298600741405 7.588962622201819 16.37833792344074 H 0.0 **** 0.06
29009 H 90.48815754207834 6.057486090597848 15.878041144098272 H 0.0 **** 0.06
29010 H 91.26052734733679 7.067002946676979 17.12317552179366 H 0.0 **** 0.06
29011 C 107.04731088668376 40.43767753893218 85.40594844605636 C 0.0 **** -0.24
29012 H 107.0145457154943 41.12403623936862 84.56095577011503 H 0.0 **** 0.06
29013 H 106.56779562247475 40.90087065181018 86.26903701609994 H 0.0 **** 0.06
29014 H 108.08470102435032 40.207206183153176 85.6469093727807 H 0.0 **** 0.06
29015 H 106.52093883062966 39.51862738428923 85.14752853839316 H 0.0 **** 0.06
29016 C 94.97400300584525 83.58866936429985 76.34209182808864 C 0.0 **** -0.24
29017 H 95.4428968587734 84.43759586780175 75.84485558421848 H 0.0 **** 0.06
29018 H 95.36722454171621 82.66029736140763 75.92623142120118 H 0.0 **** 0.06
29019 H 93.89551441280724 83.62825298841803 76.18896427222711 H 0.0 **** 0.06
29020 H 95.18997976927778 83.62885429443378 77.41049290276831 H 0.0 **** 0.06
29021 C 30.91438754014993 88.25951142005432 15.397566709163584 C 0.0 **** -0.24
29022 H 30.010138699919537 87.6601741761267 15.290732878078927 H 0.0 **** 0.06
29023 H 31.59270799902896 88.04558825744688 14.571107492998749 H 0.0 **** 0.06
29024 H 31.402831783359403 88.0143606362438 16.340698127705878 H 0.0 **** 0.06
29025 H 30.65183353024335 89.31738904296645 15.388573268271841 H 0.0 **** 0.06
29026 C 59.41921997771415 12.399147533940265 2.6587942621517016 C 0.0 **** -0.24
29027 H 58.77462492958652 11.6584127893789 3.1317327386548044 H 0.0 **** 0.06
29028 H 58.80787956771087 13.196385255143781 2.237562263287444 H 0.0 **** 0.06
29029 H 59.995184309329304 11.924141609361286 1.864663284815066 H 0.0 **** 0.06
29030 H 60.09978240372756 12.815973507138779 3.4021343753483535 H 0.0 **** 0.06
29031 C 67.35166208493087 11.880003093807773 98.91105613845654 C 0.0 **** -0.24
29032 H 68.09001602106963 11.368767627544116 99.52743282774982 H 0.0 **** 0.06
29033 H 66.58393319282368 11.170756479234228 98.59921125380403 H 0.0 **** 0.06
29034 H 67.84027771609794 12.29754428939819 98.03084783647338 H 0.0 **** 0.06
29035 H 66.89189997429776 12.683671004233531 99.48628587373848 H 0.0 **** 0.06
29036 C 100.17445212085255 9.757918189414795 71.1208745884552 C 0.0 **** -0.24
29037 H 100.49510009813565 10.772890264059527 71.35427998693439 H 0.0 **** 0.06
29038 H 99.34447250662964 9.792835198182502 70.41491409575991 H 0.0 **** 0.06
29039 H 99.85249323193557 9.259590908012513 72.03551603427172 H 0.0 **** 0.06
29040 H 101.00428535113844 9.207220887234712 70.6791475420855 H 0.0 **** 0.06
29041 C 114.59537296401385 6.730362660078981 88.32850606611844 C 0.0 **** -0.24
29042 H 113.98485448080663 6.326180592894161 87.52034911630322 H 0.0 **** 0.06
29043 H 114.70756284891507 5.978130743720271 89.1100265015795 H 0.0 **** 0.06
29044 H 114.11204431763156 7.615729980631045 88.74119076861656 H 0.0 **** 0.06
29045 H 115.57807787164802 7.00065121268625 87.94037749046923 H 0.0 **** 0.06
29046 C 36.98346383078072 34.1006837747814 74.46584235464132 C 0.0 **** -0.24
29047 H 36.72149329501812 35.15899694913634 74.48626960770554 H 0.0 **** 0.06
29048 H 36.07655695556474 33.50477375930379 74.35354432922816 H 0.0 **** 0.06
29049 H 37.481153494604484 33.83316634437264 75.39753003385198 H 0.0 **** 0.06
29050 H 37.652062535647644 33.907760589819816 73.6278818095667 H 0.0 **** 0.06
29051 C 90.14079098313653 69.0918830980684 62.49893677009743 C 0.0 **** -0.24
29052 H 90.06945188377324 68.25847882404133 63.19832910835524 H 0.0 **** 0.06
29053 H 91.09383601873355 69.04331546384088 61.97292359915714 H 0.0 **** 0.06
29054 H 90.0751366902553 70.03153279683465 63.047003814053156 H 0.0 **** 0.06
29055 H 89.32460049026105 69.03225299724213 61.77997446177463 H 0.0 **** 0.06
29056 C 81.41790171572114 42.50481297995432 100.88733915128839 C 0.0 **** -0.24
29057 H 82.07345104037034 42.82694746237625 101.69696255983456 H 0.0 **** 0.06
29058 H 80.46446073000448 42.177343388283326 101.3015655316289 H 0.0 **** 0.06
29059 H 81.88352351880962 41.67789276987997 100.34969154767872 H 0.0 **** 0.06
29060 H 81.25123964091114 43.3351032568121 100.20213605645465 H 0.0 **** 0.06
29061 C 7.5982395520159685 55.47428593074915 7.61457689869593 C 0.0 **** -0.24
29062 H 7.2208823778463795 54.462488547285034 7.465818096967837 H 0.0 **** 0.06
29063 H 6.836809917483109 56.19322456347135 7.311570746078758 H 0.0 **** 0.06
29064 H 8.495376783699982 55.620213925748715 7.013555833630619 H 0.0 **** 0.06
29065 H 7.838641370024931 55.62134584658867 8.668016009867586 H 0.0 **** 0.06
29066 C 103.09613986351576 68.33374387749609 14.379978531381312 C 0.0 **** -0.24
29067 H 102.1673950540628 68.4216046810784 14.94427556948338 H 0.0 **** 0.06
29068 H 103.1874715417145 69.18002223433317 13.697463220527823 H 0.0 **** 0.06
29069 H 103.08789564126197 67.40518028908616 13.809240197566567 H 0.0 **** 0.06
29070 H 103.94022860443626 68.3294078754011 15.06887902710713 H 0.0 **** 0.06
29071 C 83.00131997584893 18.457700657555122 3.684876065227769 C 0.0 **** -0.24
29072 H 81.95566875620186 18.65957728747912 3.4482772022489456 H 0.0 **** 0.06
29073 H 83.61798587778556 19.28602904671544 3.3344565144718388 H 0.0 **** 0.06
29074 H 83.31383605775841 17.536987191202407 3.191936940506352 H 0.0 **** 0.06
29075 H 83.11501044950003 18.35026072051458 4.763394802085486 H 0.0 **** 0.06
29076 C 94.8103663866084 90.08423009832109 109.80380923724954 C 0.0 **** -0.24
29077 H 95.85558296327514 89.77623449397629 109.83713474442172 H 0.0 **** 0.06
29078 H 94.70247422033134 91.05684576450903 110.2840868767976 H 0.0 **** 0.06
29079 H 94.19827686413254 89.35006089665302 110.32889363626282 H 0.0 **** 0.06
29080 H 94.48467242813138 90.15197939623795 108.76636672470221 H 0.0 **** 0.06
29081 C 96.44054264679698 55.182523175851614 70.04235839640172 C 0.0 **** -0.24
29082 H 97.44258973989957 54.99619679916517 70.42881753049767 H 0.0 **** 0.06
29083 H 95.97458741990192 54.23458456673403 69.77156562180666 H 0.0 **** 0.06
29084 H 96.50436559839943 55.82135655489097 69.16132711683235 H 0.0 **** 0.06
29085 H 95.84180233694508 55.67691189927206 70.80699318225366 H 0.0 **** 0.06
29086 C 110.95693558821218 95.24307977906776 31.480324291994222 C 0.0 **** -0.24
29087 H 110.39457491858487 95.20344122518287 32.41292216115212 H 0.0 **** 0.06
29088 H 111.23397280133786 96.27561019010227 31.26694223110553 H 0.0 **** 0.06
29089 H 110.34047793261468 94.85659312241606 30.668075169963338 H 0.0 **** 0.06
29090 H 111.85781704674518 94.63669328126556 31.573793874631896 H 0.0 **** 0.06
29091 C 103.20372813847422 50.91947562526602 30.142561165314902 C 0.0 **** -0.24
29092 H 103.72558303348438 51.08864025922355 29.200616179985133 H 0.0 **** 0.06
29093 H 103.9199502868496 50.94749418266301 30.96444279542561 H 0.0 **** 0.06
29094 H 102.71583754052398 49.945227380622356 30.1182371336277 H 0.0 **** 0.06
29095 H 102.45461222866959 51.69836608760966 30.28622597381201 H 0.0 **** 0.06
29096 C 69.02028135461865 20.653973214398043 55.74461365607818 C 0.0 **** -0.24
29097 H 68.78992403707957 21.621519556533713 55.299609063813925 H 0.0 **** 0.06
29098 H 70.04528007770926 20.659519173225593 56.11574359358207 H 0.0 **** 0.06
29099 H 68.90960634572514 19.873291000831284 54.99182823190549 H 0.0 **** 0.06
29100 H 68.33532709712676 20.461660656142758 56.5713948791461 H 0.0 **** 0.06
29101 C 70.59880213312067 111.74801526486729 79.19690039556468 C 0.0 **** -0.24
29102 H 70.19123667706265 111.90583281951247 78.19821396380412 H 0.0 **** 0.06
29103 H 71.68753832248944 111.767853588054 79.15146375749462 H 0.0 **** 0.06
29104 H 70.26755817192742 110.78111761729586 79.57511185245431 H 0.0 **** 0.06
29105 H 70.24681715910933 112.5377864832971 79.86069446256559 H 0.0 **** 0.06
29106 C 83.85098107658767 70.99592907840349 36.697487944260516 C 0.0 **** -0.24
29107 H 84.36959828670285 70.96461035181164 35.73893699699113 H 0.0 **** 0.06
29108 H 83.21815492627748 71.88351319101344 36.739430410309936 H 0.0 **** 0.06
29109 H 84.58237200983075 71.03237555561748 37.50460409957561 H 0.0 **** 0.06
29110 H 83.23451183736586 70.10350878804115 36.80634228575603 H 0.0 **** 0.06
29111 C 92.26481334741126 84.72619887170593 113.6939133239368 C 0.0 **** -0.24
29112 H 92.02082042651602 84.39841646201397 112.6831157508633 H 0.0 **** 0.06
29113 H 93.23882093672484 85.21707264362568 113.69094709812666 H 0.0 **** 0.06
29114 H 92.29311678991826 83.86377460402576 114.3590447303243 H 0.0 **** 0.06
29115 H 91.50516792019393 85.42842249746357 114.04057524348275 H 0.0 **** 0.06
29116 C 3.2382146034065897 108.63946623492821 39.99768260343606 C 0.0 **** -0.24
29117 H 2.9955324145764735 109.45161685457725 39.31321622998087 H 0.0 **** 0.06
29118 H 4.242342921964934 108.27354220111306 39.78534930990156 H 0.0 **** 0.06
29119 H 2.520693171260916 107.82811500203732 39.868733701061444 H 0.0 **** 0.06
29120 H 3.1935612692051336 109.003420240784 41.02374549998666 H 0.0 **** 0.06
29121 C 48.21921717013804 4.5432539127365885 58.236504937647055 C 0.0 **** -0.24
29122 H 48.99171130245849 5.205515334628274 57.845676103356226 H 0.0 **** 0.06
29123 H 48.502046726997875 3.50640095927173 58.05282862430818 H 0.0 **** 0.06
29124 H 47.2725125178087 4.7556348814143234 57.738730653241305 H 0.0 **** 0.06
29125 H 48.10967416252902 4.706242611732762 59.308048913381384 H 0.0 **** 0.06
29126 C 102.98918728349045 29.823444074029567 22.220718472762655 C 0.0 **** -0.24
29127 H 103.46644133092997 28.846420441347554 22.148062279688986 H 0.0 **** 0.06
29128 H 103.38856042957252 30.35924556081671 23.082299842501158 H 0.0 **** 0.06
29129 H 101.91314286132206 29.693599858961242 22.340223649261105 H 0.0 **** 0.06
29130 H 103.18733058698041 30.39283486178536 21.313541080210683 H 0.0 **** 0.06
29131 C 87.40509393068297 54.94881616221238 107.99165739588592 C 0.0 **** -0.24
29132 H 87.09625851308112 55.28646478320189 108.98070270270425 H 0.0 **** 0.06
29133 H 87.84766208895624 53.95531582680229 108.06917584114238 H 0.0 **** 0.06
29134 H 88.13957592594596 55.64307476078312 107.58386120732628 H 0.0 **** 0.06
29135 H 86.53687919474874 54.91040927806222 107.33288983237098 H 0.0 **** 0.06
29136 C 54.41632372437149 10.801229604418666 114.16770342913183 C 0.0 **** -0.24
29137 H 53.59494117804777 11.502687021827427 114.02265951090207 H 0.0 **** 0.06
29138 H 55.06802203397702 10.819575476766005 113.29348356841355 H 0.0 **** 0.06
29139 H 54.016665362167906 9.796175146814065 114.3014354918567 H 0.0 **** 0.06
29140 H 54.98598691110502 11.086447243461933 115.05153330227762 H 0.0 **** 0.06
29141 C 62.43572703833698 89.27081679344161 3.6095894907999195 C 0.0 **** -0.24
29142 H 61.40611341211812 89.61317650051126 3.714599868388177 H 0.0 **** 0.06
29143 H 62.88749977669556 89.74034042701766 2.7360269689950627 H 0.0 **** 0.06
29144 H 62.44687367244953 88.18789147696367 3.4861469338291755 H 0.0 **** 0.06
29145 H 63.00003712354825 89.5413945223828 4.501901298255433 H 0.0 **** 0.06
29146 C 112.5800195368432 14.814917935259956 106.46013062926036 C 0.0 **** -0.24
29147 H 112.51793608175775 13.738205789336533 106.61645761051943 H 0.0 **** 0.06
29148 H 113.530935500087 15.058478361364905 105.98509508591212 H 0.0 **** 0.06
29149 H 112.51331163940063 15.325833308660378 107.42140955527418 H 0.0 **** 0.06
29150 H 111.75952203739337 15.137322405583632 105.81938360964041 H 0.0 **** 0.06
29151 C 22.104929928168644 80.62016910580195 94.18316977342859 C 0.0 **** -0.24
29152 H 21.894047044949843 81.20061506210084 93.2848555355291 H 0.0 **** 0.06
29153 H 22.748172656733516 79.77719555926575 93.92744523335186 H 0.0 **** 0.06
29154 H 21.170968316906226 80.24964924760792 94.60517838989352 H 0.0 **** 0.06
29155 H 22.608444698910034 81.25350334772236 94.91369710321062 H 0.0 **** 0.06
29156 C 20.963045070446753 94.45106996139239 34.98436339721862 C 0.0 **** -0.24
29157 H 21.821585229414257 94.7533013711899 35.58254348667595 H 0.0 **** 0.06
29158 H 20.740717295863455 95.22662989915779 34.249952870593944 H 0.0 **** 0.06
29159 H 20.099602122661107 94.30782903354793 35.63394007544768 H 0.0 **** 0.06
29160 H 21.189119665320973 93.51737138666392 34.4690326063215 H 0.0 **** 0.06
29161 C 14.18362572809346 48.05647358381481 93.9466660706944 C 0.0 **** -0.24
29162 H 13.901244134371524 48.47260121863357 94.91307794467886 H 0.0 **** 0.06
29163 H 13.594446418075165 47.15886110031889 93.7523126116793 H 0.0 **** 0.06
29164 H 15.24239425058721 47.800836043032575 93.95605343032902 H 0.0 **** 0.06
29165 H 13.993774508951873 48.79217803966938 93.16525707976908 H 0.0 **** 0.06
29166 C 23.886546147443468 25.834212642582635 85.45106937735963 C 0.0 **** -0.24
29167 H 23.571064831824742 25.49314828986467 84.46537207901106 H 0.0 **** 0.06
29168 H 23.115367027674864 25.590238307550834 86.18253428441291 H 0.0 **** 0.06
29169 H 24.040947925271126 26.91286383154121 85.43164683583315 H 0.0 **** 0.06
29170 H 24.818199200668346 25.33848191099581 85.72579514379461 H 0.0 **** 0.06
29171 C 44.72412217135508 23.055004636933973 96.97688283908826 C 0.0 **** -0.24
29172 H 45.40325901053703 23.06355318884232 96.12405128504702 H 0.0 **** 0.06
29173 H 44.96030035608695 23.889106550547694 97.63743669898531 H 0.0 **** 0.06
29174 H 44.83680570533545 22.11707553137188 97.52076055920347 H 0.0 **** 0.06
29175 H 43.697098640556504 23.149107813378237 96.62364944487695 H 0.0 **** 0.06
29176 C 12.405104968163386 59.84444668349745 58.71112778892294 C 0.0 **** -0.24
29177 H 11.387564845577558 59.9471668216793 59.08819837561933 H 0.0 **** 0.06
29178 H 12.390839740549978 59.85061543445099 57.620823677578926 H 0.0 **** 0.06
29179 H 12.830440835813505 58.90481988058433 59.064054750319286 H 0.0 **** 0.06
29180 H 13.01072865939608 60.67627993747789 59.071725866518705 H 0.0 **** 0.06
29181 C 2.1650154663378824 88.1569752889043 79.05110966289845 C 0.0 **** -0.24
29182 H 2.2706599154001985 89.13574928554678 79.51915803131229 H 0.0 **** 0.06
29183 H 1.8170122610269175 88.2807050794114 78.02607590457556 H 0.0 **** 0.06
29184 H 1.4431902247472141 87.56252310207941 79.61174546917856 H 0.0 **** 0.06
29185 H 3.130572772301372 87.65025000153261 79.04862337841705 H 0.0 **** 0.06
29186 C 2.8778661443869424 42.52419420072749 68.79471184585299 C 0.0 **** -0.24
29187 H 3.11558544144836 42.441736612268414 69.85491172904243 H 0.0 **** 0.06
29188 H 2.55935136442055 43.54332912863366 68.57153032810653 H 0.0 **** 0.06
29189 H 2.075490384702647 41.83041019663261 68.54700565087899 H 0.0 **** 0.06
29190 H 3.761778364603245 42.28240563049164 68.20491950883162 H 0.0 **** 0.06
29191 C 49.464677322550955 28.110277358366233 113.07893301032757 C 0.0 **** -0.24
29192 H 48.77629046492807 28.15580389653772 113.92371671539071 H 0.0 **** 0.06
29193 H 49.21634694460448 28.896335740250933 112.36538775464534 H 0.0 **** 0.06
29194 H 49.3794455397007 27.137933748827578 112.5940000361319 H 0.0 **** 0.06
29195 H 50.48499044268479 28.2508293493309 113.43492570124126 H 0.0 **** 0.06
29196 C 108.32888493090684 67.81832387035625 17.328020477125108 C 0.0 **** -0.24
29197 H 107.60313608958262 68.25853568562512 16.644212221456257 H 0.0 **** 0.06
29198 H 108.13260864277083 68.16899543765525 18.341616880295362 H 0.0 **** 0.06
29199 H 109.33450076411623 68.11531227111098 17.029237485643762 H 0.0 **** 0.06
29200 H 108.24582930489802 66.73228543594571 17.29585221840614 H 0.0 **** 0.06
29201 C 98.70642031470834 84.9819687763902 62.73327255210374 C 0.0 **** -0.24
29202 H 99.79099697060218 84.88360524127182 62.68292704464767 H 0.0 **** 0.06
29203 H 98.24532329356009 84.01095749531589 62.55231346861078 H 0.0 **** 0.06
29204 H 98.37045553107862 85.69124658166356 61.976837349686505 H 0.0 **** 0.06
29205 H 98.42088122700517 85.34201786531935 63.72131941202295 H 0.0 **** 0.06
29206 C 23.942455732379585 35.250583373270814 92.03316542339593 C 0.0 **** -0.24
29207 H 23.906799311986077 35.71602685650545 91.04898685852677 H 0.0 **** 0.06
29208 H 23.574660384011025 34.226179638598055 91.96407706813676 H 0.0 **** 0.06
29209 H 23.317340816393937 35.8149790867634 92.72524734420588 H 0.0 **** 0.06
29210 H 24.97060902884766 35.24396799973335 92.39501150723794 H 0.0 **** 0.06
29211 C 74.8128655274622 0.6331424850596932 15.476553610575731 C 0.0 **** -0.24
29212 H 73.9709947957809 0.9611280435372009 16.087743269684847 H 0.0 **** 0.06
29213 H 75.65207150789263 0.37745966627483085 16.122477059542557 H 0.0 **** 0.06
29214 H 75.10467759954291 1.4364342762766285 14.80019308902568 H 0.0 **** 0.06
29215 H 74.5205662696037 -0.24231631371533524 14.896018827578164 H 0.0 **** 0.06
29216 C 19.937745244020615 95.24621696668767 47.88998215708807 C 0.0 **** -0.24
29217 H 20.500634181366447 94.34665371880813 48.136541460628564 H 0.0 **** 0.06
29218 H 19.5081929061696 95.66646356412656 48.799110923588955 H 0.0 **** 0.06
29219 H 19.138163182233633 94.99472099018912 47.19239279541239 H 0.0 **** 0.06
29220 H 20.604234360795274 95.97692553791005 47.43091915532153 H 0.0 **** 0.06
29221 C 36.41553446939618 29.900485541348743 115.47315326295805 C 0.0 **** -0.24
29222 H 36.268838126692025 30.498034493670147 116.3735021119412 H 0.0 **** 0.06
29223 H 37.386381249598045 29.40744288504621 115.51956451929408 H 0.0 **** 0.06
29224 H 36.377451052645135 30.548078799201832 114.59799264796249 H 0.0 **** 0.06
29225 H 35.62830742113469 29.149118393607893 115.40440306834469 H 0.0 **** 0.06
29226 C 59.35595093020079 97.26182317119276 40.482746960666844 C 0.0 **** -0.24
29227 H 59.43848851696815 97.53745284092292 41.534456250384494 H 0.0 **** 0.06
29228 H 60.23998227646776 97.6082999228887 39.94696340082635 H 0.0 **** 0.06
29229 H 58.46588701391104 97.72400508051072 40.054795198206165 H 0.0 **** 0.06
29230 H 59.27998625453266 96.17831469286557 40.396797874984856 H 0.0 **** 0.06
29231 C 11.387111785027741 40.51202455510217 29.856837338634705 C 0.0 **** -0.24
29232 H 12.067681097366176 41.04365601926206 30.52190196136172 H 0.0 **** 0.06
29233 H 11.859265671810931 40.38414614115821 28.882455787785716 H 0.0 **** 0.06
29234 H 10.468427015930331 41.08714336599665 29.74259117870497 H 0.0 **** 0.06
29235 H 11.154504555316862 39.53495027497334 30.279551480604653 H 0.0 **** 0.06
29236 C 2.8763296933140623 91.4074469533512 16.617666586697457 C 0.0 **** -0.24
29237 H 2.985957048833285 91.95392463945831 15.681003611320282 H 0.0 **** 0.06
29238 H 3.815264166798059 91.4427735357829 17.169822017300415 H 0.0 **** 0.06
29239 H 2.6184538935914645 90.3705435815087 16.40357317365697 H 0.0 **** 0.06
29240 H 2.0863192305472467 91.86304231411536 17.213965875641616 H 0.0 **** 0.06
29241 C 55.892999190123696 21.062473061363278 5.054708202431186 C 0.0 **** -0.24
29242 H 56.502582286285815 21.926075140383034 4.787956486535563 H 0.0 **** 0.06
29243 H 56.478503319693004 20.151302420248328 4.930038403157141 H 0.0 **** 0.06
29244 H 55.01661017020478 21.02278777424482 4.40773685555132 H 0.0 **** 0.06
29245 H 55.57373666932262 21.15023200128988 6.093754125601379 H 0.0 **** 0.06
29246 C 5.715037545709848 109.46639552682277 21.961560695386424 C 0.0 **** -0.24
29247 H 5.689719084997236 108.44687065809507 22.34552363296916 H 0.0 **** 0.06
29248 H 4.714672375972086 109.76060013617837 21.64449017782573 H 0.0 **** 0.06
29249 H 6.395416713584851 109.51775372849383 21.11188131856312 H 0.0 **** 0.06
29250 H 6.061440405264662 110.14090041691892 22.745054030833273 H 0.0 **** 0.06
29251 C 56.240768779480575 65.47078034879786 105.28227250975242 C 0.0 **** -0.24
29252 H 56.323767077593914 64.4015842641767 105.4793222864051 H 0.0 **** 0.06
29253 H 55.72147094521093 65.95354417348636 106.10915237389051 H 0.0 **** 0.06
29254 H 55.68040162920618 65.62629665556105 104.35934076946835 H 0.0 **** 0.06
29255 H 57.2371445552719 65.89904653708052 105.17812896404982 H 0.0 **** 0.06
29256 C 76.29590068309307 26.54789379292339 85.96224849053445 C 0.0 **** -0.24
29257 H 76.49223182017147 27.57297730553819 85.64721443119313 H 0.0 **** 0.06
29258 H 76.77099403606866 25.856807639222865 85.26531460484551 H 0.0 **** 0.06
29259 H 75.22105160021721 26.371277871283127 85.97368244669957 H 0.0 **** 0.06
29260 H 76.70150494085001 26.391169077496983 86.96187798044622 H 0.0 **** 0.06
29261 C 100.62932262576975 17.792642551791488 34.44939791984808 C 0.0 **** -0.24
29262 H 101.11905437078018 18.721745455132492 34.15860049836911 H 0.0 **** 0.06
29263 H 99.81520870987988 18.012019805582838 35.14064587996896 H 0.0 **** 0.06
29264 H 101.35276133296404 17.13824271820397 34.934493561608065 H 0.0 **** 0.06
29265 H 100.23130970322792 17.299620704025244 33.56296254323337 H 0.0 **** 0.06
29266 C 51.680781371692945 1.3279777452616912 30.37248196148289 C 0.0 **** -0.24
29267 H 51.81741945186377 0.6481130304609763 31.214292890375816 H 0.0 **** 0.06
29268 H 51.8146509550665 0.7801469709753235 29.43897191339596 H 0.0 **** 0.06
29269 H 52.41393915019523 2.1312063633388902 30.43194545215519 H 0.0 **** 0.06
29270 H 50.67552230865675 1.7498489969762971 30.406030509688534 H 0.0 **** 0.06
29271 C 38.770873865241924 58.96925540552033 103.67843036172425 C 0.0 **** -0.24
29272 H 38.93475786535993 58.22840639438516 102.89514855015892 H 0.0 **** 0.06
29273 H 39.5445339373548 58.87087519543394 104.43958800114059 H 0.0 **** 0.06
29274 H 37.79247754368677 58.80829341480609 104.13012536737065 H 0.0 **** 0.06
29275 H 38.811591240386406 59.96869086037171 103.24613719557226 H 0.0 **** 0.06
29276 C 96.12653828651477 46.44943853051382 66.23340304686798 C 0.0 **** -0.24
29277 H 97.07247258450761 46.963141070488405 66.06318691067787 H 0.0 **** 0.06
29278 H 95.34387170074386 46.92522447890036 65.64216508829657 H 0.0 **** 0.06
29279 H 95.86828205932174 46.505243976622296 67.29063811835692 H 0.0 **** 0.06
29280 H 96.22237615836582 45.4041037754605 65.9370957779849 H 0.0 **** 0.06
29281 C 51.10139717538957 79.0719260089407 48.68904365945912 C 0.0 **** -0.24
29282 H 50.99677433453759 79.40818030629956 49.7200934179437 H 0.0 **** 0.06
29283 H 52.15575404578424 78.8930143444147 48.47131233455883 H 0.0 **** 0.06
29284 H 50.71570846914399 79.837155253883 48.01587730293875 H 0.0 **** 0.06
29285 H 50.539701312372834 78.14866232969834 48.54884929417727 H 0.0 **** 0.06
29286 C 94.76586627759212 106.42636881371902 61.302322126519684 C 0.0 **** -0.24
29287 H 94.5978691943152 107.02441934768171 62.19787172383678 H 0.0 **** 0.06
29288 H 95.74178265895682 106.66732003295616 60.88176982656968 H 0.0 **** 0.06
29289 H 93.98956239482447 106.64535765316377 60.56938713173055 H 0.0 **** 0.06
29290 H 94.7314214657182 105.36817333299919 61.56123606560021 H 0.0 **** 0.06
29291 C 91.8127784371091 107.47037359062642 109.19309380420765 C 0.0 **** -0.24
29292 H 91.57093732163167 107.70364495891187 108.15657325408642 H 0.0 **** 0.06
29293 H 91.61519966273437 108.3416301400523 109.81742720601432 H 0.0 **** 0.06
29294 H 92.86587078740246 107.20008526714395 109.26828859096213 H 0.0 **** 0.06
29295 H 91.19832474401073 106.63500491962384 109.52974708627971 H 0.0 **** 0.06
29296 C 36.99998821409224 88.70414110596047 12.01057868206847 C 0.0 **** -0.24
29297 H 37.618127802823835 88.05666782477681 11.389808779550492 H 0.0 **** 0.06
29298 H 36.408857022570686 89.36289168684687 11.373058299325251 H 0.0 **** 0.06
29299 H 37.63810467567944 89.30408090966111 12.659636602624389 H 0.0 **** 0.06
29300 H 36.33284882933981 88.0943087263413 12.619967783458222 H 0.0 **** 0.06
29301 C 21.840281112743554 66.53770758147769 110.51198146002193 C 0.0 **** -0.24
29302 H 21.38229613153368 65.67964674571397 111.00393055217049 H 0.0 **** 0.06
29303 H 22.309505451659163 66.21497678152912 109.58226648303086 H 0.0 **** 0.06
29304 H 22.593609065413972 66.97313265507125 111.16841847127377 H 0.0 **** 0.06
29305 H 21.073555797920363 67.28191971801985 110.29320708843568 H 0.0 **** 0.06
29306 C 31.027753955793592 115.45105487441718 103.14510584028551 C 0.0 **** -0.24
29307 H 31.969716985387812 115.99714659339458 103.09816952859944 H 0.0 **** 0.06
29308 H 30.2243039007153 116.13403772882839 103.42208962803778 H 0.0 **** 0.06
29309 H 31.10393259309511 114.65824750578824 103.88908086068955 H 0.0 **** 0.06
29310 H 30.81201915771107 115.01334477940202 102.16973052659279 H 0.0 **** 0.06
29311 C 1.3863824091828008 109.04828281291344 5.905740836736271 C 0.0 **** -0.24
29312 H 1.6402725058366343 109.33809666366301 4.886491966047501 H 0.0 **** 0.06
29313 H 0.40744714429271767 108.56812176450586 5.9139088379907605 H 0.0 **** 0.06
29314 H 1.3628207274426813 109.9343888616184 6.539881561427961 H 0.0 **** 0.06
29315 H 2.135312566937259 108.3516106672111 6.282433147230137 H 0.0 **** 0.06
29316 C 53.14663137794102 92.03443895214969 79.6561367438498 C 0.0 **** -0.24
29317 H 53.69766151976262 92.73205858697304 79.02580178912405 H 0.0 **** 0.06
29318 H 53.84976683133738 91.44162158335877 80.24169091713941 H 0.0 **** 0.06
29319 H 52.54832798887972 91.37342914964756 79.0285495486948 H 0.0 **** 0.06
29320 H 52.49197121093425 92.59070366155265 80.32637113793504 H 0.0 **** 0.06
29321 C 72.23699066441378 60.30667952745368 5.492609859829386 C 0.0 **** -0.24
29322 H 73.19732843697493 60.230884241381744 6.001784626486511 H 0.0 **** 0.06
29323 H 71.43144541278546 60.186630433030885 6.217971627559919 H 0.0 **** 0.06
29324 H 72.16504137900851 59.526066775626944 4.736078620417288 H 0.0 **** 0.06
29325 H 72.15509804088457 61.2838912296462 5.016732310682443 H 0.0 **** 0.06
29326 C 81.76740580480774 70.02149100566984 88.75365477490107 C 0.0 **** -0.24
29327 H 80.72960589296233 70.32649897946226 88.61719941303804 H 0.0 **** 0.06
29328 H 81.9242513174437 69.04922968332335 88.28555861835798 H 0.0 **** 0.06
29329 H 81.98919102577919 69.95306241145309 89.81902580978223 H 0.0 **** 0.06
29330 H 82.42591535005505 70.75751852236883 88.29216778569975 H 0.0 **** 0.06
29331 C 2.9814043830633334 21.78705039012943 108.55663719632679 C 0.0 **** -0.24
29332 H 3.9098010367382496 21.655850842908684 109.11240682605182 H 0.0 **** 0.06
29333 H 2.625011171442159 22.810413833240183 108.68216331563612 H 0.0 **** 0.06
29334 H 2.2312819271598308 21.091581611190712 108.93358023229189 H 0.0 **** 0.06
29335 H 3.160344856979581 21.591795582226876 107.49889929433675 H 0.0 **** 0.06
29336 C 26.496777159342685 2.9776066039112976 1.0387868375551452 C 0.0 **** -0.24
29337 H 25.487507874434073 2.9042634333552826 0.6324607357844005 H 0.0 **** 0.06
29338 H 27.155076850189317 2.297792360479633 0.4976734692480047 H 0.0 **** 0.06
29339 H 26.48383255228279 2.707451371541424 2.09423749308694 H 0.0 **** 0.06
29340 H 26.85919537295848 3.9996024313593495 0.929351450390536 H 0.0 **** 0.06
29341 C 9.231321109728924 72.80007718685079 52.264382202194156 C 0.0 **** -0.24
29342 H 8.42269224216227 72.62610143609072 51.55363934074012 H 0.0 **** 0.06
29343 H 9.88416305961988 71.9273382658557 52.29141453528594 H 0.0 **** 0.06
29344 H 8.812356657235853 72.97264412427359 53.255042545142125 H 0.0 **** 0.06
29345 H 9.804908010407416 73.67396670870002 51.95450358141128 H 0.0 **** 0.06
29346 C 63.97218061509214 96.67223771121989 64.31297067852103 C 0.0 **** -0.24
29347 H 64.47270215977659 96.9567675914609 65.23820602840505 H 0.0 **** 0.06
29348 H 62.953599383666045 97.06069931775154 64.31663505040086 H 0.0 **** 0.06
29349 H 63.9459305772762 95.58547463431222 64.23313018021872 H 0.0 **** 0.06
29350 H 64.51649033965015 97.08600930135493 63.46391145505976 H 0.0 **** 0.06
29351 C 46.46325865311326 109.11142250808435 45.53427676204393 C 0.0 **** -0.24
29352 H 45.84433429275566 109.05425655601172 46.42920368340168 H 0.0 **** 0.06
29353 H 45.85293259260203 109.43121010663639 44.68928233354916 H 0.0 **** 0.06
29354 H 46.88992233626948 108.13011777704914 45.324239293687015 H 0.0 **** 0.06
29355 H 47.26784356748226 109.8301714965496 45.694438077336486 H 0.0 **** 0.06
29356 C 36.5108444257355 94.94629939665475 3.882120445606205 C 0.0 **** -0.24
29357 H 35.77858730040249 94.9989535190727 4.68758650931899 H 0.0 **** 0.06
29358 H 36.59032589376986 95.9212908598355 3.399776189712611 H 0.0 **** 0.06
29359 H 36.19285642587886 94.20413460072893 3.150568298187636 H 0.0 **** 0.06
29360 H 37.48000383526522 94.66229780350756 4.29103930491253 H 0.0 **** 0.06
29361 C 97.22045643078332 62.47294393196978 91.07759088528037 C 0.0 **** -0.24
29362 H 96.8543337008449 63.43159121333207 91.44434428984346 H 0.0 **** 0.06
29363 H 96.46768404197547 62.02021796640298 90.43155177226407 H 0.0 **** 0.06
29364 H 97.42153942380122 61.813390678490066 91.92094348619715 H 0.0 **** 0.06
29365 H 98.13979061946901 62.628271907073895 90.51157276418284 H 0.0 **** 0.06
29366 C 69.37361328384063 7.6180070820126815 103.69174791465318 C 0.0 **** -0.24
29367 H 70.39331102473892 7.372884378672268 103.39576667220864 H 0.0 **** 0.06
29368 H 69.2641913318356 8.702220432080026 103.75344057029871 H 0.0 **** 0.06
29369 H 69.16076364129756 7.175591352844108 104.66450680592769 H 0.0 **** 0.06
29370 H 68.67675470373405 7.223484272861185 102.95225455634828 H 0.0 **** 0.06
29371 C 37.03042402133459 86.01550629301948 111.50670158799488 C 0.0 **** -0.24
29372 H 38.09627983115844 86.1079059527911 111.2997953060084 H 0.0 **** 0.06
29373 H 36.874995114840175 85.26765853272212 112.28404778742845 H 0.0 **** 0.06
29374 H 36.51003249106486 85.71053219839575 110.59886845142437 H 0.0 **** 0.06
29375 H 36.64091344521022 86.97667187738136 111.84301218327789 H 0.0 **** 0.06
29376 C 97.39520929675444 17.498778100072506 61.149405213922904 C 0.0 **** -0.24
29377 H 98.38226713712395 17.961117217013076 61.15183660438606 H 0.0 **** 0.06
29378 H 96.9485976093435 17.602455866732967 60.160590030095776 H 0.0 **** 0.06
29379 H 96.76238579925146 17.991990571749394 61.88788303223282 H 0.0 **** 0.06
29380 H 97.48840171781382 16.44266038671595 61.398119867101485 H 0.0 **** 0.06
29381 C 68.66913826039999 14.642468164542805 37.533814252980825 C 0.0 **** -0.24
29382 H 68.42326797288277 15.182863396889132 36.620078345657035 H 0.0 **** 0.06
29383 H 69.75072754133326 14.644085421121218 37.6753581211935 H 0.0 **** 0.06
29384 H 68.31495589370826 13.615278417729996 37.454394108801544 H 0.0 **** 0.06
29385 H 68.19019734594761 15.128261751230951 38.38280284852154 H 0.0 **** 0.06
29386 C 41.18846025253882 11.013217181143332 22.78968221450392 C 0.0 **** -0.24
29387 H 41.48541429136259 10.801927913692296 23.81704714959122 H 0.0 **** 0.06
29388 H 40.474172696368754 11.837566682607275 22.781031255255158 H 0.0 **** 0.06
29389 H 40.72534355992866 10.12730353376557 22.355686283536876 H 0.0 **** 0.06
29390 H 42.067321108313934 11.286631219907733 22.206041146835595 H 0.0 **** 0.06
29391 C 49.04016392685489 49.767622983843445 52.662684007356575 C 0.0 **** -0.24
29392 H 49.97927048390895 50.10874737365376 52.226396705800056 H 0.0 **** 0.06
29393 H 48.974566154199465 48.6822614597915 52.580380274672336 H 0.0 **** 0.06
29394 H 48.20585263595535 50.224634761023495 52.13186447113523 H 0.0 **** 0.06
29395 H 49.002996146295146 50.05515964474296 53.71428178312729 H 0.0 **** 0.06
29396 C 82.23266323340246 112.25066754372136 72.92576061213923 C 0.0 **** -0.24
29397 H 82.81688077428292 113.14814565941471 72.72210536560874 H 0.0 **** 0.06
29398 H 82.3165783911715 111.56364132121756 72.0832300099513 H 0.0 **** 0.06
29399 H 81.18724992055337 112.52275104996428 73.07001768757445 H 0.0 **** 0.06
29400 H 82.61084235633409 111.76863297523298 73.82671883704751 H 0.0 **** 0.06
29401 C 88.02813537779403 80.79689626072675 39.708550712031325 C 0.0 **** -0.24
29402 H 88.30789331393834 81.3604546229702 38.81841475082068 H 0.0 **** 0.06
29403 H 87.28453501913992 81.35837864261707 40.274340079216415 H 0.0 **** 0.06
29404 H 88.90987704098546 80.63493492571531 40.327908988078754 H 0.0 **** 0.06
29405 H 87.6098415498775 79.83475267601031 39.41255483118846 H 0.0 **** 0.06
29406 C 53.351229599391466 110.26190286826107 68.35500618372194 C 0.0 **** -0.24
29407 H 53.09104107158235 109.36280354971319 68.91210653814424 H 0.0 **** 0.06
29408 H 52.45238257239188 110.85215697915692 68.1769285122939 H 0.0 **** 0.06
29409 H 53.79687951376161 109.98153298044087 67.40016405998226 H 0.0 **** 0.06
29410 H 54.06483840922802 110.8520367909743 68.92977392791161 H 0.0 **** 0.06
29411 C 53.94736787346601 22.52016709386325 11.70058940481755 C 0.0 **** -0.24
29412 H 52.88438526140792 22.470482186828605 11.934317600791985 H 0.0 **** 0.06
29413 H 54.09563017307756 23.13482227839647 10.812946556900386 H 0.0 **** 0.06
29414 H 54.32560555869057 21.515009378748843 11.51417379811005 H 0.0 **** 0.06
29415 H 54.483850500688234 22.960354531479084 12.54091966346789 H 0.0 **** 0.06
29416 C 111.91735749245306 65.73414695089315 44.687024451466954 C 0.0 **** -0.24
29417 H 113.00472091044017 65.73346013685949 44.60233702088874 H 0.0 **** 0.06
29418 H 111.51858360845756 64.82117184394008 44.24293719453888 H 0.0 **** 0.06
29419 H 111.5137381534342 66.600835301127 44.16291251331083 H 0.0 **** 0.06
29420 H 111.63555796157739 65.78090496548873 45.738961840483626 H 0.0 **** 0.06
29421 C 15.49462349622138 78.23043751879095 25.80973567083234 C 0.0 **** -0.24
29422 H 16.208991854781175 78.92936137140248 25.37519243405478 H 0.0 **** 0.06
29423 H 14.849759710498176 77.83424840536969 25.024820080354118 H 0.0 **** 0.06
29424 H 14.887100576808109 78.7484444592751 26.553081063463992 H 0.0 **** 0.06
29425 H 16.031357420133418 77.41100625176523 26.287127135745095 H 0.0 **** 0.06
29426 C 77.52247377151542 43.35048908159368 48.681750329453756 C 0.0 **** -0.24
29427 H 78.50674151852468 43.520237931859754 48.245013684017 H 0.0 **** 0.06
29428 H 76.78072105884547 43.275654609610456 47.88726734881873 H 0.0 **** 0.06
29429 H 77.26862514155522 44.18156321849892 49.33994879508055 H 0.0 **** 0.06
29430 H 77.53496411364853 42.42363896130391 49.256480249233775 H 0.0 **** 0.06
29431 C 14.29371845957985 109.2298495492127 65.19661335430266 C 0.0 **** -0.24
29432 H 13.961802001083527 109.32413098803374 66.22986257257831 H 0.0 **** 0.06
29433 H 15.083212477387576 109.95668707624213 65.00045762233344 H 0.0 **** 0.06
29434 H 13.454167427362933 109.4157224661925 64.5264694152409 H 0.0 **** 0.06
29435 H 14.677134159802279 108.22315248579577 65.02798055241597 H 0.0 **** 0.06
29436 C 86.20743818655771 102.26696371096074 50.736330448347964 C 0.0 **** -0.24
29437 H 85.41243601813011 101.5547884093257 50.51347064765913 H 0.0 **** 0.06
29438 H 86.38722580389742 102.2869595822523 51.811057442763435 H 0.0 **** 0.06
29439 H 85.90930169715617 103.26028562155992 50.39995892038003 H 0.0 **** 0.06
29440 H 87.11878916884979 101.96689438185469 50.219913666424304 H 0.0 **** 0.06
29441 C 28.051921736324957 4.108011304863606 26.469270277094523 C 0.0 **** -0.24
29442 H 27.755819156217648 5.149789904868813 26.59172499312899 H 0.0 **** 0.06
29443 H 29.066121428861955 3.9708358393061616 26.84545038882925 H 0.0 **** 0.06
29444 H 28.016896554556645 3.8424690174283302 25.412199729207344 H 0.0 **** 0.06
29445 H 27.367636356357558 3.4674874376170557 27.026528119083935 H 0.0 **** 0.06
29446 C 32.562907720684365 1.3086415382255154 65.65849884319353 C 0.0 **** -0.24
29447 H 33.098086644743574 0.6741589237749395 64.9530459371411 H 0.0 **** 0.06
29448 H 33.245172330066225 1.630580410658581 66.44624309642144 H 0.0 **** 0.06
29449 H 31.73891140403606 0.7479275722643024 66.09830607212893 H 0.0 **** 0.06
29450 H 32.1712389857619 2.1823611951045336 65.13802012714567 H 0.0 **** 0.06
29451 C 81.86701149618096 41.5046865249675 18.105965057645534 C 0.0 **** -0.24
29452 H 82.9052726480432 41.82815704159614 18.050350098887066 H 0.0 **** 0.06
29453 H 81.2123373510683 42.374795417003156 18.056793581930464 H 0.0 **** 0.06
29454 H 81.70057488809965 40.97652734001778 19.044218339399322 H 0.0 **** 0.06
29455 H 81.64871455718193 40.838742386375316 17.27039790094946 H 0.0 **** 0.06
29456 C 29.065428493842944 77.79045359688061 55.809199098045035 C 0.0 **** -0.24
29457 H 30.11637637565792 78.07699209688255 55.834133843558114 H 0.0 **** 0.06
29458 H 28.951180241293116 76.79163069873245 56.23160857645806 H 0.0 **** 0.06
29459 H 28.71329346990518 77.7906756498954 54.77748331899929 H 0.0 **** 0.06
29460 H 28.480686103178584 78.50035299316431 56.39303183133296 H 0.0 **** 0.06
29461 C 86.16104008867843 105.37663919626908 75.64896905504115 C 0.0 **** -0.24
29462 H 86.05959902563555 106.25971194541933 76.28034439583367 H 0.0 **** 0.06
29463 H 85.88681143015224 104.48913556876147 76.22000456713381 H 0.0 **** 0.06
29464 H 87.1929089977451 105.28843986993991 75.3105788555948 H 0.0 **** 0.06
29465 H 85.50281753925805 105.47065004269001 74.78493513127118 H 0.0 **** 0.06
29466 C 109.20451660480853 42.60960118793207 106.19002285901547 C 0.0 **** -0.24
29467 H 108.71538735379613 42.349162012933164 105.25092242973733 H 0.0 **** 0.06
29468 H 109.6121225576529 43.617746551884295 106.11924975181421 H 0.0 **** 0.06
29469 H 110.01038553670173 41.90370410224182 106.3874944873643 H 0.0 **** 0.06
29470 H 108.47688580578895 42.56752978610919 107.00065285165124 H 0.0 **** 0.06
29471 C 106.08880413699939 47.56693165293896 43.4813322629372 C 0.0 **** -0.24
29472 H 105.90016027881546 48.15758575223873 44.377866585354695 H 0.0 **** 0.06
29473 H 107.11657939207953 47.20428558454296 43.495310964655005 H 0.0 **** 0.06
29474 H 105.9349042259999 48.18729323098927 42.59854074173734 H 0.0 **** 0.06
29475 H 105.40413470176077 46.71930063907121 43.45398309482147 H 0.0 **** 0.06
29476 C 69.2988937115884 114.29790406759855 58.03310432579583 C 0.0 **** -0.24
29477 H 69.1141475799788 115.35434359715359 58.23069735698839 H 0.0 **** 0.06
29478 H 68.58556276251163 113.93692194106482 57.29261841810181 H 0.0 **** 0.06
29479 H 69.18245135489295 113.73023610052738 58.95676598431585 H 0.0 **** 0.06
29480 H 70.31312636450342 114.17148266942125 57.65479454402502 H 0.0 **** 0.06
29481 C 26.861570963362922 9.355950788146629 115.22435927086896 C 0.0 **** -0.24
29482 H 27.175792885739646 9.484582676402567 114.1876591770764 H 0.0 **** 0.06
29483 H 27.030583998428718 10.28279610006453 115.77230169616763 H 0.0 **** 0.06
29484 H 27.43832378838208 8.552255907181177 115.6809282251096 H 0.0 **** 0.06
29485 H 25.80142597672276 9.104445014527954 115.25281976765899 H 0.0 **** 0.06
29486 C 16.974967951140457 36.05553152756113 26.320881586240773 C 0.0 **** -0.24
29487 H 17.285324791931146 36.894229530905804 26.944017077742217 H 0.0 **** 0.06
29488 H 16.670000509204954 36.423408472674154 25.341159701254952 H 0.0 **** 0.06
29489 H 16.136164049931267 35.54333223332054 26.793590297644272 H 0.0 **** 0.06
29490 H 17.80742225321859 35.36128123533118 26.206195398673657 H 0.0 **** 0.06
29491 C 21.283889910221934 12.132945536157308 82.5022706300017 C 0.0 **** -0.24
29492 H 21.592697828795554 12.780696784664897 81.682502077967 H 0.0 **** 0.06
29493 H 22.099940028202823 11.457585303216845 82.75964064654124 H 0.0 **** 0.06
29494 H 20.41306993123368 11.551549071796103 82.19667226181605 H 0.0 **** 0.06
29495 H 21.027295864549203 12.741242448067368 83.36886560214242 H 0.0 **** 0.06
29496 C 78.97282888476877 33.054496315545464 25.075325297218114 C 0.0 **** -0.24
29497 H 78.65539983431631 32.15581571415686 24.546338969306532 H 0.0 **** 0.06
29498 H 78.3011262318162 33.23732141550488 25.914834770617517 H 0.0 **** 0.06
29499 H 78.94400065742047 33.90519885475524 24.394690549776954 H 0.0 **** 0.06
29500 H 79.98876799197143 32.91826997796255 25.44555583362785 H 0.0 **** 0.06
29501 C 21.267355254798257 50.94272433730921 104.46709604424974 C 0.0 **** -0.24
29502 H 21.324875283523212 49.976551803261756 103.96748065333391 H 0.0 **** 0.06
29503 H 21.638153822940513 50.846876586502596 105.48739950971095 H 0.0 **** 0.06
29504 H 20.23004316888242 51.27953515678874 104.48688901685554 H 0.0 **** 0.06
29505 H 21.874275358067944 51.66865204513533 103.92618431914248 H 0.0 **** 0.06
29506 C 88.93375716098495 32.393291661640035 112.61211487917119 C 0.0 **** -0.24
29507 H 89.41626975068152 33.211574413472334 112.07770821109378 H 0.0 **** 0.06
29508 H 87.88902627548327 32.32753029792542 112.30730443343614 H 0.0 **** 0.06
29509 H 88.98918316727435 32.57643792244306 113.68466459603414 H 0.0 **** 0.06
29510 H 89.44019529711437 31.45747926017262 112.37657911784484 H 0.0 **** 0.06
29511 C 96.28930418870667 100.03689050197238 14.638939229831493 C 0.0 **** -0.24
29512 H 96.3302356858802 100.27811224845567 15.701314520655274 H 0.0 **** 0.06
29513 H 95.29428317630274 100.26333937233281 14.25463895530612 H 0.0 **** 0.06
29514 H 96.5018316331405 98.97635428712695 14.499061946891032 H 0.0 **** 0.06
29515 H 97.03059937186674 100.62915746007619 14.103101738502403 H 0.0 **** 0.06
29516 C 44.81698106205989 22.726352620906113 44.96535904388154 C 0.0 **** -0.24
29517 H 43.899040479023924 22.932273432357817 44.41378010552952 H 0.0 **** 0.06
29518 H 45.51759318599841 23.549569490907416 44.825012334928275 H 0.0 **** 0.06
29519 H 45.26198431653959 21.802421357808086 44.596425905157204 H 0.0 **** 0.06
29520 H 44.5868659389217 22.621225093323517 46.026020553807676 H 0.0 **** 0.06
29521 C 8.666005110846271 25.39780137467649 69.21568198716884 C 0.0 **** -0.24
29522 H 9.399311461972786 24.69421762341453 69.609514745344 H 0.0 **** 0.06
29523 H 8.89426056205616 25.6127346638361 68.1714771624024 H 0.0 **** 0.06
29524 H 8.701090748781837 26.32085165852773 69.79355452822784 H 0.0 **** 0.06
29525 H 7.669814481410981 24.960994997512522 69.28819400538029 H 0.0 **** 0.06
29526 C 76.0630660578082 32.84424357466375 33.090906512438835 C 0.0 **** -0.24
29527 H 76.52645304922315 33.80973440121883 33.292702168506054 H 0.0 **** 0.06
29528 H 76.83758979433401 32.105372481356454 32.88349126464735 H 0.0 **** 0.06
29529 H 75.40262167879511 32.93179633114838 32.22858102022667 H 0.0 **** 0.06
29530 H 75.48567166113895 32.530719579097024 33.96099041906541 H 0.0 **** 0.06
29531 C 48.65723467442524 68.3777645011717 61.471826107210916 C 0.0 **** -0.24
29532 H 49.03563784339906 68.4717299328671 60.45366495798817 H 0.0 **** 0.06
29533 H 49.37698289706901 67.82522789618133 62.077282507905636 H 0.0 **** 0.06
29534 H 47.70752752239184 67.84490213874273 61.45831808894542 H 0.0 **** 0.06
29535 H 48.51127857883591 69.3715613929283 61.89654740365796 H 0.0 **** 0.06
29536 C 65.0229578864438 20.547649168054704 40.73342681987347 C 0.0 **** -0.24
29537 H 65.96461399659302 20.73297772350645 40.21636718253163 H 0.0 **** 0.06
29538 H 65.22426814140164 20.30811487814293 41.777987067467336 H 0.0 **** 0.06
29539 H 64.50815036017121 19.711105082017042 40.2607527612181 H 0.0 **** 0.06
29540 H 64.39654939691684 21.437754613393395 40.67983369531851 H 0.0 **** 0.06
29541 C 80.91400152409017 54.35897831886635 94.44329876512137 C 0.0 **** -0.24
29542 H 81.90147125963094 54.552140755064784 94.0234173732693 H 0.0 **** 0.06
29543 H 80.87497830299357 53.33931461023073 94.8264797425698 H 0.0 **** 0.06
29544 H 80.158528249334 54.48571745170139 93.66758625270427 H 0.0 **** 0.06
29545 H 80.72191408233897 55.060218687332 95.25588596766647 H 0.0 **** 0.06
29546 C 31.0052949889662 56.893576737675176 27.20462860220252 C 0.0 **** -0.24
29547 H 31.172529715749448 55.93162801443729 27.69052141773369 H 0.0 **** 0.06
29548 H 30.971807327606513 56.75380366405487 26.124335310920713 H 0.0 **** 0.06
29549 H 31.817957381811794 57.57361389282201 27.458964651586072 H 0.0 **** 0.06
29550 H 30.05870990456077 57.31343613364737 27.547067506451384 H 0.0 **** 0.06
29551 C 73.55665682973756 49.86239738541124 68.18088588551146 C 0.0 **** -0.24
29552 H 73.52151091321548 50.951286694972566 68.20443061343369 H 0.0 **** 0.06
29553 H 72.77168966537391 49.459433503428485 68.82201247189823 H 0.0 **** 0.06
29554 H 74.528121020096 49.52273907954026 68.53836742078028 H 0.0 **** 0.06
29555 H 73.40312547626979 49.51658938989655 67.15892283470009 H 0.0 **** 0.06
29556 C 65.61561627577791 81.76699203490023 1.2274432121812993 C 0.0 **** -0.24
29557 H 64.87490642958312 81.21124364736076 0.6526300276508152 H 0.0 **** 0.06
29558 H 65.37767895061631 81.69717290641773 2.289052224704122 H 0.0 **** 0.06
29559 H 65.60408405311028 82.81261482939308 0.9197281878076922 H 0.0 **** 0.06
29560 H 66.60514310411361 81.34570494746585 1.0481238327382698 H 0.0 **** 0.06
29561 C 14.916462544505322 55.45888286384968 2.224670079787174 C 0.0 **** -0.24
29562 H 14.02022735771368 55.73707128989463 2.7797577129008175 H 0.0 **** 0.06
29563 H 15.277728606602636 54.49279526198251 2.579373082541764 H 0.0 **** 0.06
29564 H 15.68779260324007 56.21385476964386 2.379253252762581 H 0.0 **** 0.06
29565 H 14.679641455631298 55.39170131417475 1.1630849750686991 H 0.0 **** 0.06
29566 C 99.53476226030455 93.41096751247078 7.90516309494264 C 0.0 **** -0.24
29567 H 98.4624590699899 93.43960950915431 7.709809316235646 H 0.0 **** 0.06
29568 H 100.0707674938738 93.24616083067991 6.9696093586298264 H 0.0 **** 0.06
29569 H 99.75605378484386 92.59978864587548 8.598572385581967 H 0.0 **** 0.06
29570 H 99.84890796053429 94.35893352691447 8.341293163196195 H 0.0 **** 0.06
29571 C 25.291530871064765 104.19931155368745 2.353350762429729 C 0.0 **** -0.24
29572 H 25.605684596756248 103.46715954743252 3.0968757452905944 H 0.0 **** 0.06
29573 H 24.2045057178849 104.28991830619117 2.3697946265733165 H 0.0 **** 0.06
29574 H 25.613673469828882 103.87440933568793 1.3636158004371008 H 0.0 **** 0.06
29575 H 25.74088048539494 105.16554483775583 2.582888831332614 H 0.0 **** 0.06
29576 C 24.662259720693555 11.480362428567815 55.19483393177427 C 0.0 **** -0.24
29577 H 23.66307930049507 11.04603472382503 55.2442663430314 H 0.0 **** 0.06
29578 H 24.610676285898535 12.456368897095018 54.71257874964749 H 0.0 **** 0.06
29579 H 25.314162433092008 10.823313243931551 54.61801259789789 H 0.0 **** 0.06
29580 H 25.05947410387148 11.592209197840589 56.20310944979428 H 0.0 **** 0.06
29581 C 85.26922231826174 0.32238030089851577 49.456979968885264 C 0.0 **** -0.24
29582 H 84.80615201454196 0.13035817055816779 48.49005037237487 H 0.0 **** 0.06
29583 H 84.65706286356675 1.028935851684679 50.01924745296253 H 0.0 **** 0.06
29584 H 86.26399489025903 0.7416447732366862 49.30743945772804 H 0.0 **** 0.06
29585 H 85.34921716203246 -0.6116367805726668 50.01357811679554 H 0.0 **** 0.06
29586 C 42.154908987103795 90.65196372066791 18.815154729073768 C 0.0 **** -0.24
29587 H 42.25710429790928 91.27331847346863 17.924762111607404 H 0.0 **** 0.06
29588 H 41.32272463228071 91.01556373559148 19.418438920919538 H 0.0 **** 0.06
29589 H 43.07497123332223 90.69813264138077 19.398272624860624 H 0.0 **** 0.06
29590 H 41.96526007835257 89.6210714362326 18.516961978905186 H 0.0 **** 0.06
29591 C 41.79742140790137 4.211954559975652 53.17678954349489 C 0.0 **** -0.24
29592 H 41.96646892375895 3.2798998398439494 52.636813123395626 H 0.0 **** 0.06
29593 H 41.08781667955611 4.827385585551895 52.62350267894544 H 0.0 **** 0.06
29594 H 42.74011453700939 4.748367298562016 53.27946148144517 H 0.0 **** 0.06
29595 H 41.394332554246205 3.9911818053357706 54.16490608124303 H 0.0 **** 0.06
29596 C 82.78761837844802 55.290823515425416 100.6070837444613 C 0.0 **** -0.24
29597 H 82.44452382688836 54.29947838681295 100.90478254478865 H 0.0 **** 0.06
29598 H 83.48946427770932 55.19794719047181 99.77736092069608 H 0.0 **** 0.06
29599 H 83.28419992222067 55.771257188423846 101.4504513055621 H 0.0 **** 0.06
29600 H 81.93419467999894 55.89263227991498 100.29640272642175 H 0.0 **** 0.06
29601 C 78.74243671143637 84.49705770853595 8.318555408203693 C 0.0 **** -0.24
29602 H 78.46533885112643 83.73905847033325 9.051687405942317 H 0.0 **** 0.06
29603 H 78.02785098792015 84.48442859079053 7.495164042593046 H 0.0 **** 0.06
29604 H 79.74117874914413 84.28482936959416 7.937411064085836 H 0.0 **** 0.06
29605 H 78.73493853490118 85.47854658593077 8.791943070913845 H 0.0 **** 0.06
29606 C 90.56773848414963 8.299860394252477 53.52852254234017 C 0.0 **** -0.24
29607 H 90.8738454437436 8.102973842392828 54.556161969475056 H 0.0 **** 0.06
29608 H 91.3089603481099 7.887205779074037 52.84384970658891 H 0.0 **** 0.06
29609 H 90.48878549454989 9.37585191647915 53.37357991506434 H 0.0 **** 0.06
29610 H 89.60098388761867 7.832670595286572 53.34217939746367 H 0.0 **** 0.06
29611 C 33.9204131512991 73.0163325781752 33.009773561527304 C 0.0 **** -0.24
29612 H 33.51730314173295 72.61247352470045 33.93916681058993 H 0.0 **** 0.06
29613 H 33.14207679694098 73.57263243985255 32.488486235939476 H 0.0 **** 0.06
29614 H 34.26787923429869 72.19738310819713 32.37957147707626 H 0.0 **** 0.06
29615 H 34.755329849337414 73.68134076402873 33.2346754880815 H 0.0 **** 0.06
29616 C 29.64943422159969 15.900731860275272 13.152248932536136 C 0.0 **** -0.24
29617 H 28.565075975689325 15.796886039411305 13.187544548406287 H 0.0 **** 0.06
29618 H 29.999081559495004 16.37654024974782 14.068911201873863 H 0.0 **** 0.06
29619 H 29.928052432226394 16.514955494087403 12.295626607057386 H 0.0 **** 0.06
29620 H 30.105675767936503 14.915827059963462 13.057492998850464 H 0.0 **** 0.06
29621 C 77.07447360619545 58.29809352670503 86.46486361094196 C 0.0 **** -0.24
29622 H 77.98047563297484 58.88307771583658 86.62236397873087 H 0.0 **** 0.06
29623 H 77.33926020718059 57.32076070628517 86.05994110767926 H 0.0 **** 0.06
29624 H 76.42363788068315 58.818511412909004 85.76367638804322 H 0.0 **** 0.06
29625 H 76.55684593668826 58.16863395877539 87.41585226786896 H 0.0 **** 0.06
29626 C 42.31827041337925 102.10814610318133 103.34857992829026 C 0.0 **** -0.24
29627 H 42.63226385499323 102.07493892536597 102.30570078381493 H 0.0 **** 0.06
29628 H 42.94622615056585 102.81214479871473 103.89556442682311 H 0.0 **** 0.06
29629 H 42.41503219127392 101.11609832237444 103.78833764018782 H 0.0 **** 0.06
29630 H 41.277607741634455 102.4304180245286 103.40431744904387 H 0.0 **** 0.06
29631 C 115.56746419385138 112.4206435904325 62.801938330426196 C 0.0 **** -0.24
29632 H 115.26197238123663 111.71661151803865 62.02819087609066 H 0.0 **** 0.06
29633 H 116.44980917124764 112.9668126026534 62.4681534997097 H 0.0 **** 0.06
29634 H 115.80027170420615 111.87694312620818 63.71722188825922 H 0.0 **** 0.06
29635 H 114.75546147808488 113.1236173775554 62.99346148226833 H 0.0 **** 0.06
29636 C 28.958033342342105 115.20840402382233 23.868820431486967 C 0.0 **** -0.24
29637 H 29.88936841111115 115.10968340496801 23.311671661809527 H 0.0 **** 0.06
29638 H 29.129526501334624 114.94454981367758 24.91281260312624 H 0.0 **** 0.06
29639 H 28.207926502677424 114.54076107571473 23.44332512730358 H 0.0 **** 0.06
29640 H 28.60556526858295 116.23809218912983 23.806185688103824 H 0.0 **** 0.06
29641 C 47.76094292066591 107.66066377727009 9.408408391183954 C 0.0 **** -0.24
29642 H 47.81737140488195 108.07896485776851 8.403983916529285 H 0.0 **** 0.06
29643 H 48.767338980558904 107.44616242769729 9.769096266484752 H 0.0 **** 0.06
29644 H 47.17965303486275 106.73875466270067 9.385381862366415 H 0.0 **** 0.06
29645 H 47.28065080566924 108.37708263348867 10.074397899642165 H 0.0 **** 0.06
29646 C 89.85737740497488 16.031822617798724 38.51605446571368 C 0.0 **** -0.24
29647 H 90.86079296799134 15.65843141986646 38.71834564988191 H 0.0 **** 0.06
29648 H 89.64390652518281 16.874963631333003 39.173017909407505 H 0.0 **** 0.06
29649 H 89.13191507023863 15.238216819139922 38.69517396853976 H 0.0 **** 0.06
29650 H 89.79303865287815 16.355236587763983 37.476794862628935 H 0.0 **** 0.06
29651 C 34.82727558186345 22.942131155226235 19.48711609099862 C 0.0 **** -0.24
29652 H 34.91591534557322 21.943354298024047 19.05950371378053 H 0.0 **** 0.06
29653 H 35.61009653031035 23.582065002001713 19.08115607681621 H 0.0 **** 0.06
29654 H 34.93117786299469 22.882778886605138 20.570651135807264 H 0.0 **** 0.06
29655 H 33.85144663667359 23.358142277878358 19.237265838543323 H 0.0 **** 0.06
29656 C 48.10280996782387 51.29704011168099 27.080231030902134 C 0.0 **** -0.24
29657 H 47.95346512964531 50.21946397286861 27.009411820873225 H 0.0 **** 0.06
29658 H 47.78660164154405 51.769924975533506 26.150288144986966 H 0.0 **** 0.06
29659 H 49.15751503852715 51.50709103092031 27.255097615557922 H 0.0 **** 0.06
29660 H 47.5118800131429 51.691256631492834 27.9074146381464 H 0.0 **** 0.06
29661 C 92.35719912538491 7.307778345881019 31.96989560426681 C 0.0 **** -0.24
29662 H 93.05983659607926 6.5794998447971125 32.37583230820955 H 0.0 **** 0.06
29663 H 92.62140943524918 8.304450090338406 32.32470957556225 H 0.0 **** 0.06
29664 H 91.34823777601446 7.060087304313839 32.299581355174865 H 0.0 **** 0.06
29665 H 92.39934331705012 7.286054740631812 30.881685416746507 H 0.0 **** 0.06
29666 C 43.71204634438811 64.69649965927516 32.34024660504444 C 0.0 **** -0.24
29667 H 43.93442388803277 65.54891234818074 31.697962074916695 H 0.0 **** 0.06
29668 H 42.65604010644245 64.44351964839375 32.25402939586645 H 0.0 **** 0.06
29669 H 43.94221799336208 64.95245284934158 33.375235310801926 H 0.0 **** 0.06
29670 H 44.317839584978685 63.84402669337781 32.0335188304294 H 0.0 **** 0.06
29671 C 53.98353507239125 41.55658308392691 86.8786130545173 C 0.0 **** -0.24
29672 H 54.686199559664345 41.229301515441506 87.64533854803761 H 0.0 **** 0.06
29673 H 53.67653990202385 42.58284718156082 87.08254582635556 H 0.0 **** 0.06
29674 H 53.10844973531994 40.906329559910176 86.88633272927689 H 0.0 **** 0.06
29675 H 54.463800346529524 41.50830622151875 85.90167542868187 H 0.0 **** 0.06
29676 C 48.66254831551032 97.63360711210173 50.86957634471017 C 0.0 **** -0.24
29677 H 49.33926366270558 96.79804539384256 50.687547301019634 H 0.0 **** 0.06
29678 H 47.66655179312892 97.25137256938527 51.09493002459476 H 0.0 **** 0.06
29679 H 48.61816653178093 98.26476341335479 49.98221592527477 H 0.0 **** 0.06
29680 H 49.02699844437274 98.21815535206527 51.713685314257845 H 0.0 **** 0.06
29681 C 70.99225315225988 32.36068182671215 11.423784079923372 C 0.0 **** -0.24
29682 H 70.76449397712736 32.761946354574576 12.411865125625834 H 0.0 **** 0.06
29683 H 71.43293958664322 33.143461327427076 10.806810623747829 H 0.0 **** 0.06
29684 H 70.07409968141422 32.002473836338964 10.957196632544498 H 0.0 **** 0.06
29685 H 71.69666178274707 31.5337091201867 11.52127388489681 H 0.0 **** 0.06
29686 C 103.33949193898991 112.90242248525337 14.921921731590317 C 0.0 **** -0.24
29687 H 103.93650799767777 113.07635282847265 15.817448753267684 H 0.0 **** 0.06
29688 H 103.63208716327011 113.61036852194792 14.14709210875455 H 0.0 **** 0.06
29689 H 102.28336464427866 113.03808469807807 15.158202375723306 H 0.0 **** 0.06
29690 H 103.50396206372221 111.88545603708363 14.567490769771837 H 0.0 **** 0.06
29691 C 16.15486535891056 27.206726843466072 58.54541542656655 C 0.0 **** -0.24
29692 H 15.213155993909428 26.984113596931792 58.043399107095595 H 0.0 **** 0.06
29693 H 16.189010737195183 28.266091440911225 58.79996071371225 H 0.0 **** 0.06
29694 H 16.985770529740645 26.96455729506303 57.88229846915979 H 0.0 **** 0.06
29695 H 16.23120737391924 26.61023483185329 59.454884925042364 H 0.0 **** 0.06
29696 C 66.43473612693549 41.18093994633966 0.9078939401714052 C 0.0 **** -0.24
29697 H 66.48060056251136 42.139421134588616 1.4246373997541468 H 0.0 **** 0.06
29698 H 67.004781548901 40.43908337799883 1.4681221642768918 H 0.0 **** 0.06
29699 H 66.85658181494124 41.28641630959547 -0.09183878989732364 H 0.0 **** 0.06
29700 H 65.39544389604471 40.859685244389084 0.8323645910195836 H 0.0 **** 0.06
29701 C 18.359842296983857 82.07730887370644 103.47784334402684 C 0.0 **** -0.24
29702 H 17.46781856463457 82.52493252274881 103.9171192675477 H 0.0 **** 0.06
29703 H 18.674240596810876 82.66659141032541 102.6158030790694 H 0.0 **** 0.06
29704 H 18.13706307426861 81.05882340285027 103.16146657946359 H 0.0 **** 0.06
29705 H 19.159322113798623 82.0610690204306 104.21853007992362 H 0.0 **** 0.06
29706 C 20.064186581554566 94.04898567326916 17.402699258809577 C 0.0 **** -0.24
29707 H 19.93856870799266 95.11522496580602 17.215206704835595 H 0.0 **** 0.06
29708 H 19.102925694802224 93.61333134444226 17.679149053772505 H 0.0 **** 0.06
29709 H 20.77569454654983 93.90391423866845 18.21561453715472 H 0.0 **** 0.06
29710 H 20.43800148104856 93.56230476231525 16.501929777154288 H 0.0 **** 0.06
29711 C 30.624459715482757 52.67211748217916 24.40315528688339 C 0.0 **** -0.24
29712 H 31.515885592976474 52.74128302565644 25.0251395981918 H 0.0 **** 0.06
29713 H 30.701451719769665 51.8000364284657 23.752736575218364 H 0.0 **** 0.06
29714 H 30.5342516857132 53.57146946867237 23.794572484969393 H 0.0 **** 0.06
29715 H 29.744353922612447 52.57466253764378 25.039002672161416 H 0.0 **** 0.06
29716 C 69.26844598395004 48.577273474715696 103.26577828936223 C 0.0 **** -0.24
29717 H 69.16905446497316 48.68891357978134 104.34658470240493 H 0.0 **** 0.06
29718 H 69.0567778756467 47.544465648051585 102.98737532516458 H 0.0 **** 0.06
29719 H 70.28386664678224 48.83456086769371 102.96609750727066 H 0.0 **** 0.06
29720 H 68.56238225139374 49.24050558079483 102.76632386778243 H 0.0 **** 0.06
29721 C 106.19383722137438 34.7633439570389 36.256543745214 C 0.0 **** -0.24
29722 H 106.4380780766362 35.72637001092244 35.80805206766172 H 0.0 **** 0.06
29723 H 105.39372003480582 34.89583101502012 36.98577162563896 H 0.0 **** 0.06
29724 H 107.07581376643145 34.36010195956425 36.75387442370271 H 0.0 **** 0.06
29725 H 105.86637271033786 34.07297599060212 35.479195934053365 H 0.0 **** 0.06
29726 C 54.57864223762818 27.93363692304129 38.062260279211856 C 0.0 **** -0.24
29727 H 54.35828759034408 27.68121279234481 39.09901453490408 H 0.0 **** 0.06
29728 H 53.66842209591593 27.85365579619031 37.46751672406789 H 0.0 **** 0.06
29729 H 55.3287374757213 27.24500226245425 37.67298915435036 H 0.0 **** 0.06
29730 H 54.95992537150655 28.953520465572353 38.009389693638674 H 0.0 **** 0.06
29731 C 23.18575843450313 15.792173105024556 32.53767801835113 C 0.0 **** -0.24
29732 H 22.966795162344894 16.850784543541536 32.67438725637254 H 0.0 **** 0.06
29733 H 22.917483366908982 15.2454598312063 33.44185977886207 H 0.0 **** 0.06
29734 H 24.249514151222996 15.664782787593452 32.33704643124781 H 0.0 **** 0.06
29735 H 22.609890143885593 15.408865303294718 31.695646923562265 H 0.0 **** 0.06
29736 C 98.13455778532486 12.01540995907932 49.89032086570137 C 0.0 **** -0.24
29737 H 97.2054828282644 11.868726483286409 50.44310686352242 H 0.0 **** 0.06
29738 H 98.90332291794002 12.389140422618766 50.56669300330708 H 0.0 **** 0.06
29739 H 97.97053169437629 12.737862798409026 49.091230226308795 H 0.0 **** 0.06
29740 H 98.4554374740701 11.066000233364662 49.462712516391434 H 0.0 **** 0.06
29741 C 13.182343880602275 3.5558732136415188 26.034942570346047 C 0.0 **** -0.24
29742 H 12.223811572632485 3.0858331844768827 25.813497820913625 H 0.0 **** 0.06
29743 H 13.959217525318252 2.792173257380341 26.07744313548102 H 0.0 **** 0.06
29744 H 13.121832808298052 4.066776566846613 26.995395418736862 H 0.0 **** 0.06
29745 H 13.421837197167235 4.276751261733693 25.253397094990433 H 0.0 **** 0.06
29746 C 65.74916347698394 102.28747493025358 72.09830204097165 C 0.0 **** -0.24
29747 H 66.32867513434505 101.71450430136679 72.82174410302306 H 0.0 **** 0.06
29748 H 66.35897535405962 103.10192169903522 71.708348913684 H 0.0 **** 0.06
29749 H 64.86309552353835 102.69605753063803 72.58328487264777 H 0.0 **** 0.06
29750 H 65.44590610612129 101.63528195637407 71.27916294549314 H 0.0 **** 0.06
29751 C 46.45401013025963 57.87173842738571 101.67193512411585 C 0.0 **** -0.24
29752 H 46.19204492592456 58.08409520773995 100.6348601756763 H 0.0 **** 0.06
29753 H 46.66387945799141 58.8073176089774 102.1920871377094 H 0.0 **** 0.06
29754 H 47.337476280960175 57.23451182442521 101.69956350537713 H 0.0 **** 0.06
29755 H 45.622435388775045 57.362987870046496 102.15977309595853 H 0.0 **** 0.06
29756 C 96.80873216286474 95.50608421140268 61.58784674325079 C 0.0 **** -0.24
29757 H 96.83196600512736 95.23968924644645 60.53078926640137 H 0.0 **** 0.06
29758 H 96.03688834321613 94.9239704194889 62.09145394347678 H 0.0 **** 0.06
29759 H 96.587861791189 96.56821137714513 61.68980100153294 H 0.0 **** 0.06
29760 H 97.77871650848844 95.29086332908858 62.03755995271098 H 0.0 **** 0.06
29761 C 0.6547919320921096 29.893094547829946 92.72582952932862 C 0.0 **** -0.24
29762 H 1.7352236505288943 29.978377456752014 92.83653910825095 H 0.0 **** 0.06
29763 H 0.1923288667429972 30.859570961809652 92.9240812889895 H 0.0 **** 0.06
29764 H 0.273704270219838 29.155295596101325 93.43142602687101 H 0.0 **** 0.06
29765 H 0.41858314783627293 29.578776842493653 91.7091691389449 H 0.0 **** 0.06
29766 C 11.458559669036674 27.4605276624999 10.086143923879007 C 0.0 **** -0.24
29767 H 11.581388533497034 26.595898605850387 10.738492930014473 H 0.0 **** 0.06
29768 H 11.045521276017524 28.29046567599945 10.65782882556438 H 0.0 **** 0.06
29769 H 10.779880360876149 27.20585066676275 9.270885257600753 H 0.0 **** 0.06
29770 H 12.427197807670495 27.746370864980072 9.675020554935543 H 0.0 **** 0.06
29771 C 8.305402608175168 8.505042820066876 82.67657908063018 C 0.0 **** -0.24
29772 H 7.897483094388509 7.494439935943731 82.68223724964116 H 0.0 **** 0.06
29773 H 8.146208965073058 8.965754866596995 83.65185257329642 H 0.0 **** 0.06
29774 H 7.804709695532001 9.094620752481973 81.90923498136567 H 0.0 **** 0.06
29775 H 9.374131347501937 8.464827220637474 82.46392397575232 H 0.0 **** 0.06
29776 C 57.94003600662694 51.23912557843131 50.52963878425123 C 0.0 **** -0.24
29777 H 57.133012924128934 51.970132592101535 50.47817951923915 H 0.0 **** 0.06
29778 H 57.53060413586982 50.263385093458986 50.79144522327596 H 0.0 **** 0.06
29779 H 58.66060475433625 51.54715703216385 51.28680112971003 H 0.0 **** 0.06
29780 H 58.4356325473679 51.17815139888461 49.56054292012814 H 0.0 **** 0.06
29781 C 62.98516738050563 73.86446666098846 18.736713770356303 C 0.0 **** -0.24
29782 H 61.949068007289725 74.17866213796395 18.864275000269785 H 0.0 **** 0.06
29783 H 63.04626753573115 72.77850170730147 18.8080961711412 H 0.0 **** 0.06
29784 H 63.60062835421871 74.31591131265242 19.51463282176823 H 0.0 **** 0.06
29785 H 63.34296576849977 74.18562007156095 17.75833890858901 H 0.0 **** 0.06
29786 C 94.56153188543482 71.79393023477724 37.68874371159666 C 0.0 **** -0.24
29787 H 94.71587906843797 72.85324232697351 37.89305810220628 H 0.0 **** 0.06
29788 H 94.00028669508805 71.34394321027094 38.507906754911744 H 0.0 **** 0.06
29789 H 95.52775127140768 71.29702691617626 37.59364468002951 H 0.0 **** 0.06
29790 H 94.00178182877158 71.68063346324223 36.76014030318538 H 0.0 **** 0.06
29791 C 19.74675223920842 43.46933392190765 71.44039152141784 C 0.0 **** -0.24
29792 H 18.850189452390023 42.924862584976836 71.73826353723115 H 0.0 **** 0.06
29793 H 19.665364992472927 43.75797561807627 70.3931324507538 H 0.0 **** 0.06
29794 H 20.62086347314005 42.83196552857686 71.57489301924579 H 0.0 **** 0.06
29795 H 19.850945572857913 44.36216025540682 72.05659474987738 H 0.0 **** 0.06
29796 C 63.67597023393414 50.81586716502554 111.41315241998649 C 0.0 **** -0.24
29797 H 62.838071575952384 51.49180483839575 111.58264764588768 H 0.0 **** 0.06
29798 H 63.38054822034579 50.04015985326046 110.70678173391951 H 0.0 **** 0.06
29799 H 63.968093811791135 50.356532271063855 112.35755213991791 H 0.0 **** 0.06
29800 H 64.51741187881413 51.37688604586765 111.0061532240743 H 0.0 **** 0.06
29801 C 104.65720653837573 66.7181753902358 69.68625081760769 C 0.0 **** -0.24
29802 H 105.47804183055985 66.0533746870354 69.95427128646361 H 0.0 **** 0.06
29803 H 103.8915609502828 66.6806180970511 70.46093902465032 H 0.0 **** 0.06
29804 H 104.22834746074778 66.40065045960151 68.7357949457051 H 0.0 **** 0.06
29805 H 105.03087591191276 67.73805831725494 69.59399801361172 H 0.0 **** 0.06
29806 C 25.210895659019172 0.6307325241754729 72.26817334463288 C 0.0 **** -0.24
29807 H 25.50881059756 -0.03498881594212122 71.45806264394055 H 0.0 **** 0.06
29808 H 25.430558946337584 0.1575589985842356 73.225666141731 H 0.0 **** 0.06
29809 H 24.142384408339865 0.8322657177620982 72.198858279483 H 0.0 **** 0.06
29810 H 25.76329041858139 1.5667382600898883 72.19026441458716 H 0.0 **** 0.06
29811 C 90.97563712857995 77.63708833797543 36.32097198217119 C 0.0 **** -0.24
29812 H 91.25460398532974 77.18705382288037 37.27335002736385 H 0.0 **** 0.06
29813 H 91.20894129975751 76.94556702693401 35.51127141871373 H 0.0 **** 0.06
29814 H 91.53289610972074 78.56343011436435 36.179759649267396 H 0.0 **** 0.06
29815 H 89.9073564234147 77.85187410699147 36.32001272769364 H 0.0 **** 0.06
29816 C 20.480857176418155 78.33582350128842 53.08939851670726 C 0.0 **** -0.24
29817 H 20.276435926009924 79.02935890075852 53.905183516903094 H 0.0 **** 0.06
29818 H 21.158050231580575 78.80588944425003 52.37578505768195 H 0.0 **** 0.06
29819 H 19.546641692705833 78.07920132504859 52.58894262677089 H 0.0 **** 0.06
29820 H 20.9412593840417 77.4319092791936 53.48696031400496 H 0.0 **** 0.06
29821 C 48.93198783389761 94.71574038651757 77.06963215911134 C 0.0 **** -0.24
29822 H 49.150971552376205 94.8023519060637 76.0046841729297 H 0.0 **** 0.06
29823 H 49.85429787059408 94.51349281646822 77.61482727122228 H 0.0 **** 0.06
29824 H 48.228497447194 93.89910819395317 77.22991209054345 H 0.0 **** 0.06
29825 H 48.49520103089216 95.64744799453 77.42694810750783 H 0.0 **** 0.06
29826 C 72.64541533243113 55.76808381500038 13.150713943905146 C 0.0 **** -0.24
29827 H 73.31095728831971 56.03124486664893 13.972249496476849 H 0.0 **** 0.06
29828 H 72.87076513521384 54.75742140497086 12.810284047898222 H 0.0 **** 0.06
29829 H 72.78722827759591 56.469164151643966 12.32844635719323 H 0.0 **** 0.06
29830 H 71.61085730392165 55.813529693010466 13.492659817083535 H 0.0 **** 0.06
29831 C 42.396769303513906 3.9251644202927025 113.13370862709611 C 0.0 **** -0.24
29832 H 41.85824187457905 4.716002060552057 112.6111365145956 H 0.0 **** 0.06
29833 H 42.26094503483591 2.981524653433496 112.60261779198393 H 0.0 **** 0.06
29834 H 42.00861022548327 3.830239907165918 114.14707101765259 H 0.0 **** 0.06
29835 H 43.4577245234438 4.171532154130119 113.17183337787311 H 0.0 **** 0.06
29836 C 25.595946701012167 25.215432818156323 106.75413358624209 C 0.0 **** -0.24
29837 H 25.905824994447585 26.242662054432373 106.94691872546554 H 0.0 **** 0.06
29838 H 26.379344159361494 24.532053824744686 107.08241875153738 H 0.0 **** 0.06
29839 H 25.421608234434075 25.083145501516853 105.68652331308621 H 0.0 **** 0.06
29840 H 24.676777311272417 25.005447610917265 107.30134964723516 H 0.0 **** 0.06
29841 C 16.254451703542642 97.96326922054799 6.545448170116686 C 0.0 **** -0.24
29842 H 15.540067918601466 98.30357428109096 5.796044535153527 H 0.0 **** 0.06
29843 H 17.10977698327116 97.50369205357896 6.050363292383253 H 0.0 **** 0.06
29844 H 15.776280137962956 97.23301344170517 7.198383093061068 H 0.0 **** 0.06
29845 H 16.59192283006226 98.81357028395723 7.139086075586334 H 0.0 **** 0.06
29846 C 65.9295388692442 96.7603434906161 22.73636291720696 C 0.0 **** -0.24
29847 H 66.02569466535837 96.51812194471259 23.7944221311119 H 0.0 **** 0.06
29848 H 65.08582830505395 96.21290151301038 22.314574586967765 H 0.0 **** 0.06
29849 H 66.84363198923688 96.47649220044005 22.215038875365067 H 0.0 **** 0.06
29850 H 65.76335693258233 97.83068318692678 22.622306144653933 H 0.0 **** 0.06
29851 C 61.392479556864544 20.665096240206353 13.24263578562369 C 0.0 **** -0.24
29852 H 61.6985852542486 19.64401081341836 13.467732084550846 H 0.0 **** 0.06
29853 H 60.834122270938195 20.67827577370481 12.306153515290646 H 0.0 **** 0.06
29854 H 62.27538701676389 21.29698490893591 13.14799085648302 H 0.0 **** 0.06
29855 H 60.76085322391225 21.04054617986435 14.047808486976464 H 0.0 **** 0.06
29856 C 106.53711009896432 81.53492734743253 111.40957942325274 C 0.0 **** -0.24
29857 H 106.44873066588673 81.89247082260925 112.43504919075275 H 0.0 **** 0.06
29858 H 105.71656264917746 81.93505606019465 110.81328545280773 H 0.0 **** 0.06
29859 H 106.49585082222887 80.44578752578212 111.40043229607141 H 0.0 **** 0.06
29860 H 107.48638871325434 81.86598598209463 110.98964634705162 H 0.0 **** 0.06
29861 C 113.4637731132796 72.26865120754411 71.06338558784694 C 0.0 **** -0.24
29862 H 113.93626386786545 72.94556312082813 71.77622455112657 H 0.0 **** 0.06
29863 H 113.972607238736 72.34125607101498 70.102203545789 H 0.0 **** 0.06
29864 H 112.41541531782474 72.54284997569204 70.94241217660164 H 0.0 **** 0.06
29865 H 113.53214442474219 71.24605249713176 71.434423042108 H 0.0 **** 0.06
29866 C 91.71372319826169 101.10254119334007 102.93545262333873 C 0.0 **** -0.24
29867 H 92.13042242421737 100.16115181092937 103.29521561051924 H 0.0 **** 0.06
29868 H 92.08950172654514 101.30552124413961 101.93261507404225 H 0.0 **** 0.06
29869 H 92.00851781158345 101.91011884503678 103.60483440740076 H 0.0 **** 0.06
29870 H 90.62661433785436 101.03030143661815 102.90841047893375 H 0.0 **** 0.06
29871 C 94.03353543773699 19.365069462707197 110.77472612822623 C 0.0 **** -0.24
29872 H 94.50589376769642 19.91071649578555 111.59074965760209 H 0.0 **** 0.06
29873 H 92.95018649239466 19.388316969688617 110.90237136033875 H 0.0 **** 0.06
29874 H 94.37833254026117 18.33110453921364 110.78136270042938 H 0.0 **** 0.06
29875 H 94.2983676856361 19.830530871470785 109.82541790410079 H 0.0 **** 0.06
29876 C 38.88072005679516 88.82604480816241 38.230266865024234 C 0.0 **** -0.24
29877 H 39.52192090100428 88.83545591713556 37.349501630466705 H 0.0 **** 0.06
29878 H 39.491514822100555 88.94602253978155 39.12494649603562 H 0.0 **** 0.06
29879 H 38.344634929829795 87.87817417700745 38.28007218712463 H 0.0 **** 0.06
29880 H 38.163936066266665 89.64557228867517 38.16692613203972 H 0.0 **** 0.06
29881 C 33.91991914411676 75.84860993227315 27.379664173477835 C 0.0 **** -0.24
29882 H 33.49066563339579 75.31539100062886 26.531692167948734 H 0.0 **** 0.06
29883 H 33.198106972605956 76.57269821250989 27.757188862436976 H 0.0 **** 0.06
29884 H 34.82447249145309 76.36889058946407 27.06176963177947 H 0.0 **** 0.06
29885 H 34.16863203182112 75.13783781545787 28.16788334689369 H 0.0 **** 0.06
29886 C 87.43108608332466 82.53417445020176 10.018337566986816 C 0.0 **** -0.24
29887 H 87.36793767300694 83.1027132685532 9.089907975066865 H 0.0 **** 0.06
29888 H 86.50315374603747 82.65083803964347 10.578304303304861 H 0.0 **** 0.06
29889 H 88.26502657136555 82.90298838013183 10.614381210218014 H 0.0 **** 0.06
29890 H 87.58691960759694 81.47957630168509 9.78811965007786 H 0.0 **** 0.06
29891 C 27.302555664843993 8.514322657626622 73.07620125264494 C 0.0 **** -0.24
29892 H 27.727782569817265 8.177897151521165 72.12996207344763 H 0.0 **** 0.06
29893 H 27.170772856745373 9.595980011008692 73.05074129337872 H 0.0 **** 0.06
29894 H 27.976509022139567 8.248521933230336 73.89170937914055 H 0.0 **** 0.06
29895 H 26.3368052970266 8.033469501294803 73.23187727750677 H 0.0 **** 0.06
29896 C 84.87224386922895 51.00891837358584 37.69347801616786 C 0.0 **** -0.24
29897 H 84.81567912380811 51.55797354451121 38.633358540082725 H 0.0 **** 0.06
29898 H 84.71523429194906 51.69645340573089 36.8612026792556 H 0.0 **** 0.06
29899 H 84.10448240124819 50.23637052660192 37.67678612603467 H 0.0 **** 0.06
29900 H 85.85529929786588 50.54613939320964 37.60189613016712 H 0.0 **** 0.06
29901 C 109.61911462370992 90.10595100948036 115.56792005816553 C 0.0 **** -0.24
29902 H 110.66217020896131 89.8016618938468 115.64691790692753 H 0.0 **** 0.06
29903 H 109.00347039882388 89.23582876958864 115.33973584398774 H 0.0 **** 0.06
29904 H 109.51467959474495 90.84478651147731 114.7732603893234 H 0.0 **** 0.06
29905 H 109.29550890524759 90.54131253610302 116.51412369227816 H 0.0 **** 0.06
29906 C 59.27280915006281 91.11122981138837 58.67874318044369 C 0.0 **** -0.24
29907 H 59.33763926183349 91.55119314759287 59.67406116584948 H 0.0 **** 0.06
29908 H 60.07508389016954 91.50481208353818 58.05509844549681 H 0.0 **** 0.06
29909 H 58.309849447059776 91.36227456333114 58.23325722651964 H 0.0 **** 0.06
29910 H 59.366451882090246 90.02748681864017 58.753179453076086 H 0.0 **** 0.06
29911 C 35.18166175430687 14.755931891289947 86.288710103879 C 0.0 **** -0.24
29912 H 35.43058646897103 13.720168895846882 86.51734299193548 H 0.0 **** 0.06
29913 H 34.160018202052484 14.962305376565439 86.60576360200803 H 0.0 **** 0.06
29914 H 35.27060249770119 14.922327607141852 85.21580447630207 H 0.0 **** 0.06
29915 H 35.867559838912 15.419123221051393 86.81714052716623 H 0.0 **** 0.06
29916 C 27.416325517620244 52.673516847096884 82.4529539220844 C 0.0 **** -0.24
29917 H 27.701475573248217 53.56226744867083 81.89107733477753 H 0.0 **** 0.06
29918 H 26.473649178947127 52.28565741370934 82.06494874048984 H 0.0 **** 0.06
29919 H 27.298145901844187 52.931247088772395 83.50512178791463 H 0.0 **** 0.06
29920 H 28.192263776625566 51.91435751962911 82.34903784847472 H 0.0 **** 0.06
29921 C 100.01845953945528 76.38596533516532 36.99006598407343 C 0.0 **** -0.24
29922 H 100.15377449726816 75.33652116730218 36.727274452666286 H 0.0 **** 0.06
29923 H 100.58248667991495 77.00999297631003 36.295483700331694 H 0.0 **** 0.06
29924 H 100.3775837361573 76.55550736989906 38.00511960869768 H 0.0 **** 0.06
29925 H 98.96036723739573 76.64144704788609 36.9310800476999 H 0.0 **** 0.06
29926 C 93.78909876566212 41.1118694329092 12.722382261204935 C 0.0 **** -0.24
29927 H 94.74150353695836 41.617342631048814 12.560398952477481 H 0.0 **** 0.06
29928 H 93.51628015725089 40.55596164721541 11.82596437106001 H 0.0 **** 0.06
29929 H 93.01858275492548 41.85079971709706 12.940903725053172 H 0.0 **** 0.06
29930 H 93.88174591001484 40.42456792041912 13.563052629689508 H 0.0 **** 0.06
29931 C 60.16212249627799 31.337672195700577 96.30423915454571 C 0.0 **** -0.24
29932 H 59.87767078645291 30.699571359552976 95.46713871686993 H 0.0 **** 0.06
29933 H 60.60989302510001 30.728610779153712 97.08906732626093 H 0.0 **** 0.06
29934 H 59.27724858989501 31.840779041082612 96.69461109148432 H 0.0 **** 0.06
29935 H 60.882770581350144 32.08116167130606 95.9644491298904 H 0.0 **** 0.06
29936 C 45.10481968331656 80.8037616842712 77.04685149610378 C 0.0 **** -0.24
29937 H 44.063453801556875 80.59422273375384 77.29248764137162 H 0.0 **** 0.06
29938 H 45.6452117883475 79.86494640277891 76.93059864012946 H 0.0 **** 0.06
29939 H 45.55671686542686 81.38799399823745 77.84904296208805 H 0.0 **** 0.06
29940 H 45.150697573444404 81.36855836894824 76.11583674534091 H 0.0 **** 0.06
29941 C 86.87314040039129 113.6564603404342 94.2868182525954 C 0.0 **** -0.24
29942 H 87.90293253159454 113.3038721738112 94.35391052495342 H 0.0 **** 0.06
29943 H 86.6997424729306 114.41562215382515 95.04963085334808 H 0.0 **** 0.06
29944 H 86.1923277977234 112.8200258445581 94.44463170058191 H 0.0 **** 0.06
29945 H 86.7003949999859 114.08608938681922 93.30005006044712 H 0.0 **** 0.06
29946 C 8.036494590857801 70.55383971023763 83.23643327269833 C 0.0 **** -0.24
29947 H 7.711231156245457 71.09248119940361 84.12697841445376 H 0.0 **** 0.06
29948 H 7.194602053749961 70.00250804772324 82.81687642746152 H 0.0 **** 0.06
29949 H 8.83078814854549 69.85709988578205 83.50401673008199 H 0.0 **** 0.06
29950 H 8.409290282277691 71.26404252015014 82.49904406827166 H 0.0 **** 0.06
29951 C 111.8881198650117 51.74917190148125 63.41259086287562 C 0.0 **** -0.24
29952 H 112.74751036981594 52.072740552807204 63.999619676470274 H 0.0 **** 0.06
29953 H 112.12497953107315 51.8239362697073 62.35032467418489 H 0.0 **** 0.06
29954 H 111.0332653001792 52.385409904834944 63.640216409784216 H 0.0 **** 0.06
29955 H 111.64839452962003 50.71567772168089 63.659177562183345 H 0.0 **** 0.06
29956 C 6.176656920432492 78.9983203179037 58.40960013227915 C 0.0 **** -0.24
29957 H 6.659036314585151 78.88832782642513 57.438678770658754 H 0.0 **** 0.06
29958 H 5.122651521487754 78.73181717679972 58.324527747448855 H 0.0 **** 0.06
29959 H 6.264237390222931 80.03214644834583 58.74388407403012 H 0.0 **** 0.06
29960 H 6.6598849218909635 78.34070803410373 59.13181222419962 H 0.0 **** 0.06
29961 C 107.36693454899309 93.42514349755265 28.76800910970354 C 0.0 **** -0.24
29962 H 107.644352285033 93.29972260093564 29.813867351546264 H 0.0 **** 0.06
29963 H 106.73666786018129 92.59146544271294 28.456653335307692 H 0.0 **** 0.06
29964 H 108.26719936012346 93.44912406098642 28.154105414720902 H 0.0 **** 0.06
29965 H 106.82001345344585 94.35975619968656 28.646185753527618 H 0.0 **** 0.06
29966 C 105.6608519562594 44.14763201835125 104.16899512940088 C 0.0 **** -0.24
29967 H 105.4286859567276 43.78531212909791 103.1677105642258 H 0.0 **** 0.06
29968 H 106.630819098079 44.646709024319264 104.15942704473932 H 0.0 **** 0.06
29969 H 105.69217000804555 43.30620874266325 104.86213269110125 H 0.0 **** 0.06
29970 H 104.89246660970026 44.85287011164747 104.48777533381266 H 0.0 **** 0.06
29971 C 87.59765894471704 41.93837633970543 83.08351877659271 C 0.0 **** -0.24
29972 H 87.52688186198209 42.597448692734645 83.94879953555056 H 0.0 **** 0.06
29973 H 86.96248374166862 42.318910229106905 82.28363880294063 H 0.0 **** 0.06
29974 H 87.2692197947676 40.93729682827188 83.36393119179516 H 0.0 **** 0.06
29975 H 88.63143459986183 41.89868714075587 82.74020956039436 H 0.0 **** 0.06
29976 C 45.23795529912891 55.53686523045578 85.75496480882728 C 0.0 **** -0.24
29977 H 45.04985954516948 54.97254675623314 84.84194062298228 H 0.0 **** 0.06
29978 H 44.70503234260249 55.071992505907964 86.585232297989 H 0.0 **** 0.06
29979 H 44.88888417382617 56.56124419237014 85.6271930851933 H 0.0 **** 0.06
29980 H 46.307693046654066 55.541034326563874 85.96481318451703 H 0.0 **** 0.06
29981 C 47.42420193137289 97.4350240688521 33.09701400381758 C 0.0 **** -0.24
29982 H 48.338058197208056 97.67096299312206 32.552569283586394 H 0.0 **** 0.06
29983 H 46.8428061980801 96.7055413566618 32.532255129758795 H 0.0 **** 0.06
29984 H 46.836086466714846 98.34272065245403 33.231348107707134 H 0.0 **** 0.06
29985 H 47.67896667020487 97.01859201673494 34.071997015981 H 0.0 **** 0.06
29986 C 62.65907702039647 4.32896745961574 107.40634155696627 C 0.0 **** -0.24
29987 H 62.337138951405734 3.474254369235723 108.00015120010382 H 0.0 **** 0.06
29988 H 62.98404807073564 3.9864896032892148 106.42327525323564 H 0.0 **** 0.06
29989 H 63.486409823027145 4.8300280510282505 107.90889729677397 H 0.0 **** 0.06
29990 H 61.82810210224693 5.025874228844657 107.29202943743249 H 0.0 **** 0.06
29991 C 25.95908178842697 66.90354053458768 28.08377680455132 C 0.0 **** -0.24
29992 H 26.152832728258062 67.96682066363446 28.227552786166164 H 0.0 **** 0.06
29993 H 26.320644553368027 66.59780020964628 27.102291327512773 H 0.0 **** 0.06
29994 H 24.886554492748616 66.71838105139933 28.15041593136025 H 0.0 **** 0.06
29995 H 26.47506522481035 66.33332470531147 28.856189615225816 H 0.0 **** 0.06
29996 C 91.21557776821737 27.348389260107908 106.13202788653228 C 0.0 **** -0.24
29997 H 91.23368821796147 28.418771446296745 106.33645764503677 H 0.0 **** 0.06
29998 H 92.19681168136731 26.922138045946014 106.34292007332476 H 0.0 **** 0.06
29999 H 90.96552055733828 27.183200783919318 105.08402468323686 H 0.0 **** 0.06
30000 H 90.46727379473067 26.870574175800186 106.76383594706846 H 0.0 **** 0.06
30001 C 55.55806200316249 60.4364046720421 68.13459310617378 C 0.0 **** -0.24
30002 H 55.94612807491126 61.135662700601685 67.392887249691 H 0.0 **** 0.06
30003 H 55.86255705617708 59.42336604388673 67.87200018113285 H 0.0 **** 0.06
30004 H 54.47020642648715 60.49547161826868 68.15433770402038 H 0.0 **** 0.06
30005 H 55.95505786932853 60.69263190348468 69.11673588021436 H 0.0 **** 0.06
30006 C 89.0773818506068 33.28684549075433 25.221929439345274 C 0.0 **** -0.24
30007 H 89.57859351334525 34.14483518717935 24.774303386898424 H 0.0 **** 0.06
30008 H 89.28031422438471 33.26543356641287 26.292225418257658 H 0.0 **** 0.06
30009 H 89.44784425801026 32.370253161349694 24.76229078591527 H 0.0 **** 0.06
30010 H 88.00269780233054 33.367942912460194 25.056702323997598 H 0.0 **** 0.06
30011 C 4.850037695660406 4.397909989304935 63.20523106229207 C 0.0 **** -0.24
30012 H 4.763954073285742 5.4321095743063665 62.87124542408898 H 0.0 **** 0.06
30013 H 5.247289056171089 4.377124921487734 64.22080379648264 H 0.0 **** 0.06
30014 H 5.5228045947976785 3.857034572524185 62.54044238881173 H 0.0 **** 0.06
30015 H 3.8674396977084555 3.928453908686947 63.18927470075138 H 0.0 **** 0.06
30016 C 67.24207814277415 112.31043420695795 97.37981614247967 C 0.0 **** -0.24
30017 H 67.35348989052045 113.2506632301917 96.83839814843171 H 0.0 **** 0.06
30018 H 66.35292440230884 112.35866920561443 98.00955548847192 H 0.0 **** 0.06
30019 H 68.1204400206209 112.14362375288063 98.00232651804967 H 0.0 **** 0.06
30020 H 67.1394292863286 111.49168556754455 96.66778214109807 H 0.0 **** 0.06
30021 C 8.871061906349194 20.347364514087303 108.7987070466679 C 0.0 **** -0.24
30022 H 9.921897186096583 20.272626161025585 109.0790942213703 H 0.0 **** 0.06
30023 H 8.443750661407964 21.253454194527848 109.22844086461723 H 0.0 **** 0.06
30024 H 8.332253292061505 19.478170690635466 109.17588727832461 H 0.0 **** 0.06
30025 H 8.787443359132805 20.384460116591697 107.71320562881215 H 0.0 **** 0.06
30026 C 64.03500680465949 99.25198763975129 72.46862788370515 C 0.0 **** -0.24
30027 H 63.60911368146411 99.93293788921164 71.73104641940219 H 0.0 **** 0.06
30028 H 64.96582119152748 98.83664170626389 72.08391393758524 H 0.0 **** 0.06
30029 H 63.32968452691402 98.44423403489975 72.66575777101849 H 0.0 **** 0.06
30030 H 64.23292050192244 99.79614738794487 73.39246224537621 H 0.0 **** 0.06
30031 C 7.018547103477218 96.34771852142188 74.25465985673985 C 0.0 **** -0.24
30032 H 7.23871736148125 95.28132053542356 74.21317603864662 H 0.0 **** 0.06
30033 H 6.161190022385895 96.51564781626632 74.90841997114804 H 0.0 **** 0.06
30034 H 6.788438699819125 96.70991153344261 73.25288499426514 H 0.0 **** 0.06
30035 H 7.88386269588365 96.88273648404328 74.64486520308635 H 0.0 **** 0.06
30036 C 3.370938586248883 44.856000514766336 8.657556737656023 C 0.0 **** -0.24
30037 H 3.2038600464206723 44.038833657795436 9.358549308712512 H 0.0 **** 0.06
30038 H 2.411083298714047 45.257930462335636 8.332089783963411 H 0.0 **** 0.06
30039 H 3.9226621192092352 44.48497841742082 7.793127811535811 H 0.0 **** 0.06
30040 H 3.947999811511707 45.64100519813495 9.146491860297061 H 0.0 **** 0.06
30041 C 11.491802078220644 69.7912874704246 47.54618448730427 C 0.0 **** -0.24
30042 H 10.6174088722126 69.1805340219052 47.77283256003746 H 0.0 **** 0.06
30043 H 11.36261333857217 70.26174411427496 46.57116530653877 H 0.0 **** 0.06
30044 H 12.380089850973562 69.16056695162888 47.53118593999179 H 0.0 **** 0.06
30045 H 11.60443773646378 70.5605926989387 48.309514151401075 H 0.0 **** 0.06
30046 C 37.77505998121245 71.18786192398383 44.15798173386642 C 0.0 **** -0.24
30047 H 37.075971322463126 71.77463933331211 43.56208923159315 H 0.0 **** 0.06
30048 H 37.774648548447935 71.5547376487958 45.18500347636106 H 0.0 **** 0.06
30049 H 38.777561592826856 71.28237209844218 43.73870379189705 H 0.0 **** 0.06
30050 H 37.47341289157044 70.14121451994794 44.14476372691762 H 0.0 **** 0.06
30051 C 98.89972650863484 89.32649294515453 26.032307268775796 C 0.0 **** -0.24
30052 H 99.04254622258884 88.40359323680633 25.46836371705197 H 0.0 **** 0.06
30053 H 98.02925344810481 89.85724511209848 25.645158188041506 H 0.0 **** 0.06
30054 H 99.78450897601664 89.95546406957205 25.928398996915107 H 0.0 **** 0.06
30055 H 98.74315302196734 89.08904917732572 27.084425959837546 H 0.0 **** 0.06
30056 C 47.71554645380067 108.04757066591645 62.142360192926844 C 0.0 **** -0.24
30057 H 48.3630710125837 108.09164476377285 61.266426978687036 H 0.0 **** 0.06
30058 H 48.3270211751217 108.00827647341393 63.044468418523536 H 0.0 **** 0.06
30059 H 47.0912530651749 107.15614110479902 62.087646248860096 H 0.0 **** 0.06
30060 H 47.08216967727145 108.93448767840735 62.170496524647604 H 0.0 **** 0.06
30061 C 53.44786413367187 89.40221816238898 65.45105636670348 C 0.0 **** -0.24
30062 H 52.985472173371825 89.23097039040117 64.47914103612572 H 0.0 **** 0.06
30063 H 52.87904944446992 90.15677830505322 65.99576131487055 H 0.0 **** 0.06
30064 H 54.47098877125083 89.75132682673294 65.3102064708392 H 0.0 **** 0.06
30065 H 53.45529775561443 88.47214589064171 66.01886516398037 H 0.0 **** 0.06
30066 C 44.89756103274402 89.61007257073379 0.4268909142922599 C 0.0 **** -0.24
30067 H 43.98151668481282 90.08516282272544 0.07232399639216958 H 0.0 **** 0.06
30068 H 45.22933679293442 88.87189784064998 -0.30339839697396975 H 0.0 **** 0.06
30069 H 44.70511370627034 89.11794289003265 1.3800897087305 H 0.0 **** 0.06
30070 H 45.67084409343789 90.3660631277519 0.5577651110557547 H 0.0 **** 0.06
30071 C 27.50514828862407 33.46931645314962 25.137129440114194 C 0.0 **** -0.24
30072 H 27.190887017049988 32.42718345808764 25.180834689543317 H 0.0 **** 0.06
30073 H 27.703789375727183 33.74601689777242 24.10122056625925 H 0.0 **** 0.06
30074 H 28.412304949668624 33.60060603637632 25.72815437202965 H 0.0 **** 0.06
30075 H 26.71524133521052 34.10403628479946 25.538198349755532 H 0.0 **** 0.06
30076 C 110.13546830491865 63.75817727358901 40.13556106275214 C 0.0 **** -0.24
30077 H 111.15670771203149 63.58352724893001 40.47266036204295 H 0.0 **** 0.06
30078 H 109.83979578183838 64.77723151125667 40.384534477701045 H 0.0 **** 0.06
30079 H 109.46446815285405 63.054216829933296 40.62812381190577 H 0.0 **** 0.06
30080 H 110.08075531664016 63.61753688269437 39.055210921649376 H 0.0 **** 0.06
30081 C 92.96531927022 81.0526445046196 8.948000029002813 C 0.0 **** -0.24
30082 H 91.9717854692355 80.75994367863376 9.284025668038907 H 0.0 **** 0.06
30083 H 93.05240714130235 82.13922454466547 8.973575768484011 H 0.0 **** 0.06
30084 H 93.12352030730779 80.69857829946193 7.929116752208401 H 0.0 **** 0.06
30085 H 93.7159544631036 80.61231960407565 9.605439323908541 H 0.0 **** 0.06
30086 C 115.68747901168672 81.26875335301932 102.51755549335508 C 0.0 **** -0.24
30087 H 114.66854251815721 81.08513869128967 102.85697054610944 H 0.0 **** 0.06
30088 H 115.67706862275867 81.51647974305789 101.45600623474627 H 0.0 **** 0.06
30089 H 116.2897724081148 80.37413567037736 102.67636491668009 H 0.0 **** 0.06
30090 H 116.11316137611328 82.09903395636465 103.08061692021954 H 0.0 **** 0.06
30091 C 86.28954157883966 0.4996882719345592 32.162013569590385 C 0.0 **** -0.24
30092 H 85.63960554409938 -0.17718662404297447 31.606542473864863 H 0.0 **** 0.06
30093 H 86.22656612331548 1.4992293806446924 31.729615226663384 H 0.0 **** 0.06
30094 H 87.31804902382623 0.14330542989934258 32.10522222068283 H 0.0 **** 0.06
30095 H 85.97256797611763 0.534073417481153 33.203732283476484 H 0.0 **** 0.06
30096 C 101.0502226912057 60.53932613657142 41.087172817680596 C 0.0 **** -0.24
30097 H 100.33607202294826 60.25069198503286 40.316049160155075 H 0.0 **** 0.06
30098 H 100.85155076958966 61.564158346472894 41.400927448588334 H 0.0 **** 0.06
30099 H 102.06233910064219 60.46976502633798 40.69026715752884 H 0.0 **** 0.06
30100 H 100.94844246246564 59.87128164715641 41.94313191010684 H 0.0 **** 0.06
30101 C 55.25121323650858 87.57712018777829 114.13449608423032 C 0.0 **** -0.24
30102 H 55.38157939488284 87.88225700121751 115.17223530081904 H 0.0 **** 0.06
30103 H 54.6496779713698 86.6683777800456 114.09562223788309 H 0.0 **** 0.06
30104 H 56.226567942020964 87.38644360485011 113.68646125216159 H 0.0 **** 0.06
30105 H 54.747515069586555 88.37077096771696 113.58306238393287 H 0.0 **** 0.06
30106 C 45.81557675199622 38.90480806411858 110.0712102750584 C 0.0 **** -0.24
30107 H 46.614870315273734 39.49762153408457 110.51413177065425 H 0.0 **** 0.06
30108 H 46.15605817916487 37.87759486965783 109.93665520310662 H 0.0 **** 0.06
30109 H 45.54368103207224 39.32700303081455 109.10333025620233 H 0.0 **** 0.06
30110 H 44.94663095662828 38.91698341201976 110.72979555268732 H 0.0 **** 0.06
30111 C 39.505700853742404 75.87157601756977 61.07733844975618 C 0.0 **** -0.24
30112 H 39.43482590628038 75.64170337598456 60.01420211522549 H 0.0 **** 0.06
30113 H 39.46687496082402 76.9511776190023 61.219361110035095 H 0.0 **** 0.06
30114 H 40.44772075049333 75.48707992060578 61.46992970227069 H 0.0 **** 0.06
30115 H 38.67473361265909 75.40460533754445 61.606251859116156 H 0.0 **** 0.06
30116 C 17.63804036493398 46.591281827992134 47.76535847652849 C 0.0 **** -0.24
30117 H 17.241506437892323 47.0975996960467 48.64604041547676 H 0.0 **** 0.06
30118 H 17.86471026580285 47.328137876450796 46.99465393750262 H 0.0 **** 0.06
30119 H 16.89749970228906 45.88582885811206 47.38739388168034 H 0.0 **** 0.06
30120 H 18.548081845298594 46.05479062606486 48.03394226285752 H 0.0 **** 0.06
30121 C 91.31963501475383 14.86620668887565 7.402624799769232 C 0.0 **** -0.24
30122 H 90.79324960941352 15.070573109984338 8.334628173991515 H 0.0 **** 0.06
30123 H 92.04805609357226 14.070797150586344 7.564340685484714 H 0.0 **** 0.06
30124 H 91.83456699063721 15.767477168035015 7.070971215546582 H 0.0 **** 0.06
30125 H 90.60491023886549 14.555601827166981 6.641468713913042 H 0.0 **** 0.06
30126 C 33.62985054870205 108.2692528029638 109.52819054762708 C 0.0 **** -0.24
30127 H 34.21092654119613 109.12304462473664 109.17912065426405 H 0.0 **** 0.06
30128 H 33.53559648003423 108.31264706904994 110.61307194271923 H 0.0 **** 0.06
30129 H 34.13549608098208 107.34627181189721 109.24383292315113 H 0.0 **** 0.06
30130 H 32.638986056833346 108.29510245441665 109.07517853283404 H 0.0 **** 0.06
30131 C 37.19542226834369 64.70386703744389 88.6309226599771 C 0.0 **** -0.24
30132 H 37.09408759977747 64.06143721377465 87.75642180810416 H 0.0 **** 0.06
30133 H 37.354130086213985 65.73355046460925 88.30856339840727 H 0.0 **** 0.06
30134 H 38.04548495759332 64.37372961771888 89.22801165095159 H 0.0 **** 0.06
30135 H 36.28656228471007 64.64620290751849 89.22987418718593 H 0.0 **** 0.06
30136 C 84.85454104758028 53.11523441039759 62.15242965038152 C 0.0 **** -0.24
30137 H 84.01386468047818 52.5699404642599 61.72271538684839 H 0.0 **** 0.06
30138 H 85.139999448111 53.92719369880177 61.48404567728085 H 0.0 **** 0.06
30139 H 85.69770308068112 52.43689260201921 62.281761447226415 H 0.0 **** 0.06
30140 H 84.56574941568162 53.525055948280595 63.12027894322324 H 0.0 **** 0.06
30141 C 101.81194570363772 59.38601726611792 44.90013672814399 C 0.0 **** -0.24
30142 H 102.71799682420304 59.4826063502487 44.302506046953255 H 0.0 **** 0.06
30143 H 102.07469894090087 59.371651255809965 45.95820617074918 H 0.0 **** 0.06
30144 H 101.30244734488309 58.458281196186206 44.638886301025266 H 0.0 **** 0.06
30145 H 101.15339732056366 60.231667919936044 44.70031033020413 H 0.0 **** 0.06
30146 C 49.392756341907585 29.449934448867396 32.703713285176704 C 0.0 **** -0.24
30147 H 50.32129279615506 29.85751975043354 33.10280826089541 H 0.0 **** 0.06
30148 H 48.87363041981932 28.895804511521078 33.48648203171302 H 0.0 **** 0.06
30149 H 49.61729199001125 28.78175347330864 31.872183674561462 H 0.0 **** 0.06
30150 H 48.75914117944549 30.26549899028703 32.354468548247326 H 0.0 **** 0.06
30151 C 53.585178872349786 72.05565716834639 47.98135312025664 C 0.0 **** -0.24
30152 H 52.551618230204525 71.71076936215314 48.020715421825514 H 0.0 **** 0.06
30153 H 54.21354138626231 71.38891446739933 48.571582953711925 H 0.0 **** 0.06
30154 H 53.6457799053199 73.06563635763507 48.38699226514069 H 0.0 **** 0.06
30155 H 53.92723358127279 72.05879816808454 46.94668542826338 H 0.0 **** 0.06
30156 C 52.01179682924874 40.68493054704203 31.290354204182904 C 0.0 **** -0.24
30157 H 51.19300351330378 40.08630806943245 31.69013566609317 H 0.0 **** 0.06
30158 H 52.86558665656696 40.04012352261486 31.082365310500194 H 0.0 **** 0.06
30159 H 52.29715751780634 41.4418297355611 32.020983010364716 H 0.0 **** 0.06
30160 H 51.69027740965362 41.17189991032416 30.3697920675383 H 0.0 **** 0.06
30161 C 38.74475638065038 29.800535669427298 84.16199449758992 C 0.0 **** -0.24
30162 H 39.59815853781228 29.395450479416155 83.61867205935488 H 0.0 **** 0.06
30163 H 38.94936109450111 29.771734044999405 85.23232152351974 H 0.0 **** 0.06
30164 H 37.85916221766243 29.203473640244987 83.94506720627695 H 0.0 **** 0.06
30165 H 38.57257282574598 30.83101140646376 83.85276791612421 H 0.0 **** 0.06
30166 C 50.84196113513866 80.1550286575366 29.640424515639438 C 0.0 **** -0.24
30167 H 51.587532774602664 79.74528957824765 30.321339585232693 H 0.0 **** 0.06
30168 H 51.268465811599185 80.23470241726079 28.640263311606674 H 0.0 **** 0.06
30169 H 50.53779446133004 81.14282642803471 29.986285384642926 H 0.0 **** 0.06
30170 H 49.9737460171132 79.4959159840547 29.613767544719607 H 0.0 **** 0.06
30171 C 60.9362357376458 12.86741125179708 7.571530309347679 C 0.0 **** -0.24
30172 H 61.87881636399236 12.37949737702749 7.323622341321595 H 0.0 **** 0.06
30173 H 60.462112355554325 13.225427606612413 6.6571578928828785 H 0.0 **** 0.06
30174 H 61.12819523694655 13.710406777039339 8.235319168362537 H 0.0 **** 0.06
30175 H 60.278304364237016 12.154743334741426 8.06874182925975 H 0.0 **** 0.06
30176 C 88.82524416293404 103.32803127510887 112.89883282042057 C 0.0 **** -0.24
30177 H 88.00813561954746 102.66241914423571 112.62212968277835 H 0.0 **** 0.06
30178 H 88.9351308810796 103.3369672536417 113.98289073770981 H 0.0 **** 0.06
30179 H 88.60734104224883 104.3361349755736 112.54611520424339 H 0.0 **** 0.06
30180 H 89.75115664371609 102.97554838547619 112.44238835856275 H 0.0 **** 0.06
30181 C 10.802008064127492 108.52490182674609 21.744521181560742 C 0.0 **** -0.24
30182 H 10.024420078989976 109.0533288853191 21.19265313368973 H 0.0 **** 0.06
30183 H 10.391052244819974 108.15041019362336 22.682401729478585 H 0.0 **** 0.06
30184 H 11.626062698512868 109.20776632958072 21.95470839970298 H 0.0 **** 0.06
30185 H 11.166878063405434 107.6883432499488 21.14742884059146 H 0.0 **** 0.06
30186 C 18.71683298640224 21.57178798145779 30.618430674535986 C 0.0 **** -0.24
30187 H 17.801204980257808 21.675003335500037 31.199846567522904 H 0.0 **** 0.06
30188 H 19.578903941164867 21.685831940847436 31.277191112121358 H 0.0 **** 0.06
30189 H 18.74546449164731 22.34110880791434 29.84678097559724 H 0.0 **** 0.06
30190 H 18.743055360733933 20.586996174865106 30.15275375163567 H 0.0 **** 0.06
30191 C 26.98715576698841 104.54666791872683 28.909500425224053 C 0.0 **** -0.24
30192 H 27.21308016667666 103.80837791587557 29.67933588093058 H 0.0 **** 0.06
30193 H 26.154859559405622 104.19304585037544 28.301227468106674 H 0.0 **** 0.06
30194 H 27.864064622151943 104.69136535296198 28.277123825968005 H 0.0 **** 0.06
30195 H 26.718363626102132 105.49251304530749 29.38059741690506 H 0.0 **** 0.06
30196 C 46.196656943217505 71.44393179139706 32.42501615777459 C 0.0 **** -0.24
30197 H 46.01821963428952 70.51405408414348 31.88554502919716 H 0.0 **** 0.06
30198 H 47.26662490893273 71.65287449613288 32.445512460965745 H 0.0 **** 0.06
30199 H 45.82523306870462 71.34871915891603 33.44569262656245 H 0.0 **** 0.06
30200 H 45.67655016094308 72.26007942639575 31.923314514373033 H 0.0 **** 0.06
30201 C 17.089830636142807 62.03183181739689 101.6438468689413 C 0.0 **** -0.24
30202 H 17.258881691966224 62.607334398528224 100.7337193644716 H 0.0 **** 0.06
30203 H 16.02062828336622 61.99154558188502 101.8529591050945 H 0.0 **** 0.06
30204 H 17.605791070856895 62.509983101557566 102.47685153259795 H 0.0 **** 0.06
30205 H 17.473591911578495 61.02046919606687 101.51096546429434 H 0.0 **** 0.06
30206 C 82.8948341585307 72.1674416264774 60.50954501274913 C 0.0 **** -0.24
30207 H 83.31812897210534 71.62797569121366 59.66257185550808 H 0.0 **** 0.06
30208 H 81.83873724191858 71.91351607428402 60.61141645067872 H 0.0 **** 0.06
30209 H 82.9964358400633 73.24025310471927 60.34503301781413 H 0.0 **** 0.06
30210 H 83.42508588703333 71.88734079774372 61.4199565709647 H 0.0 **** 0.06
30211 C 47.44117174611111 110.17828642320008 67.11006662924977 C 0.0 **** -0.24
30212 H 47.105117581424196 110.06681181111811 66.08003630827928 H 0.0 **** 0.06
30213 H 48.43116717823223 109.73223315886159 67.21957120097737 H 0.0 **** 0.06
30214 H 46.740839644021094 109.67610216107612 67.7773914831438 H 0.0 **** 0.06
30215 H 47.48968657817596 111.23718523651358 67.36417718291158 H 0.0 **** 0.06
30216 C 31.186846911469246 100.5902228630311 115.20924113101353 C 0.0 **** -0.24
30217 H 30.89180814972235 100.98220137535466 116.18187952758839 H 0.0 **** 0.06
30218 H 31.764963422111606 101.344069704004 114.674170262318 H 0.0 **** 0.06
30219 H 30.295905827581322 100.33942930472959 114.63355447189193 H 0.0 **** 0.06
30220 H 31.794222302775324 99.69594448811736 115.34780108648613 H 0.0 **** 0.06
30221 C 26.53803154666727 108.5688043807807 22.097219151946486 C 0.0 **** -0.24
30222 H 25.727858898738504 109.28131379525354 22.254979148292897 H 0.0 **** 0.06
30223 H 27.4939324140376 109.0618326448843 22.275090558027564 H 0.0 **** 0.06
30224 H 26.503089552819148 108.2010805446265 21.07161162298486 H 0.0 **** 0.06
30225 H 26.42496794309615 107.7329398621199 22.787076122373946 H 0.0 **** 0.06
30226 C 68.34101732748894 24.305421517893365 61.59422438225113 C 0.0 **** -0.24
30227 H 69.11934924385343 23.83663788208554 62.19687097954818 H 0.0 **** 0.06
30228 H 67.80542978426308 23.53997070474861 61.034198942311775 H 0.0 **** 0.06
30229 H 68.79562999768586 25.012838319850175 60.90112892861487 H 0.0 **** 0.06
30230 H 67.64591065030885 24.83268828931267 62.247093415446386 H 0.0 **** 0.06
30231 C 33.808257223522695 105.10370241679345 97.89442191857191 C 0.0 **** -0.24
30232 H 32.95134296818876 104.78994876348827 98.49013840384305 H 0.0 **** 0.06
30233 H 33.86778701141457 104.49306168494472 96.99327283132897 H 0.0 **** 0.06
30234 H 34.72144499434888 104.98120239512141 98.47784583153106 H 0.0 **** 0.06
30235 H 33.69264635790586 106.15199708967667 97.61638227127548 H 0.0 **** 0.06
30236 C 113.39465423162767 110.33479529706386 95.0876821458522 C 0.0 **** -0.24
30237 H 114.1865216668856 110.31728352401485 94.33905417418075 H 0.0 **** 0.06
30238 H 112.95459390093504 111.33232732955696 95.12718439449844 H 0.0 **** 0.06
30239 H 113.81068474649055 110.08263236438924 96.06283187320923 H 0.0 **** 0.06
30240 H 112.62588344608264 109.60908418903328 94.8223815275141 H 0.0 **** 0.06
30241 C 37.401775416065675 38.50789065687178 108.4967358316894 C 0.0 **** -0.24
30242 H 37.93436947165361 39.04762876148277 107.71279515405163 H 0.0 **** 0.06
30243 H 37.97870902475756 38.54806860134087 109.42089053859448 H 0.0 **** 0.06
30244 H 37.26977652771626 37.46805439340537 108.19526199169162 H 0.0 **** 0.06
30245 H 36.426670599416184 38.96698523071393 108.65526735813008 H 0.0 **** 0.06
30246 C 72.60926985243731 59.911478141409404 73.62408138415105 C 0.0 **** -0.24
30247 H 72.72845614196171 60.955021416861555 73.9160413699658 H 0.0 **** 0.06
30248 H 71.84225369627389 59.83570842167097 72.8529116511275 H 0.0 **** 0.06
30249 H 72.31298859362222 59.323424384145724 74.49195618739907 H 0.0 **** 0.06
30250 H 73.55481234796807 59.53355557712091 73.23456693406558 H 0.0 **** 0.06
30251 C 9.059681302658731 24.601399043941825 16.480693597610866 C 0.0 **** -0.24
30252 H 9.650710522797993 24.87674999176261 17.354398291909803 H 0.0 **** 0.06
30253 H 8.099844718728079 24.200274118697706 16.80376169096914 H 0.0 **** 0.06
30254 H 9.59368200300517 23.847000393649125 15.902978721231875 H 0.0 **** 0.06
30255 H 8.89512943743864 25.483681280975503 15.861263735577637 H 0.0 **** 0.06
30256 C 110.01992709878131 113.36021561305023 49.5862442841962 C 0.0 **** -0.24
30257 H 110.335351820324 112.58100678125405 50.278732036692645 H 0.0 **** 0.06
30258 H 108.94724441876765 113.27757847704328 49.40864761217637 H 0.0 **** 0.06
30259 H 110.55435105349429 113.24534565960133 48.64231177506764 H 0.0 **** 0.06
30260 H 110.2440039490238 114.33834489705822 50.01294942303426 H 0.0 **** 0.06
30261 C 33.98869025477154 111.51899575868784 38.154327808898195 C 0.0 **** -0.24
30262 H 33.33461634046898 111.72841011645423 39.0017631119231 H 0.0 **** 0.06
30263 H 34.70967128431846 112.32983745674144 38.04396600884545 H 0.0 **** 0.06
30264 H 33.39002625850446 111.43843054181743 37.246147039821295 H 0.0 **** 0.06
30265 H 34.516649832215876 110.58204174947272 38.32573756384962 H 0.0 **** 0.06
30266 C 63.900294193409096 45.06534788213261 74.35641260364851 C 0.0 **** -0.24
30267 H 64.5892248976679 45.73539105147037 74.8694828887117 H 0.0 **** 0.06
30268 H 64.11401856121101 44.035144266425675 74.64316689355462 H 0.0 **** 0.06
30269 H 64.0221388327483 45.17504398927201 73.27832807014425 H 0.0 **** 0.06
30270 H 62.87607041464884 45.3152012878092 74.63278819257569 H 0.0 **** 0.06
30271 C 58.591594196818505 48.439243370932104 108.49138794322334 C 0.0 **** -0.24
30272 H 57.96821931889093 48.98012806977397 107.77907615533513 H 0.0 **** 0.06
30273 H 58.26089937505071 47.402902020560475 108.55061652115103 H 0.0 **** 0.06
30274 H 58.50851249799541 48.90445948703285 109.47315161071185 H 0.0 **** 0.06
30275 H 59.63062358918319 48.471462146052545 108.16145839859064 H 0.0 **** 0.06
30276 C 82.21802815806899 85.91807529033736 36.76226644271995 C 0.0 **** -0.24
30277 H 83.10411570766323 85.77014666824631 36.1447435310173 H 0.0 **** 0.06
30278 H 81.73425854802574 84.95713245065885 36.93915740726604 H 0.0 **** 0.06
30279 H 81.52508661526724 86.58563242130077 36.24912893034298 H 0.0 **** 0.06
30280 H 82.50889224204252 86.36025395831928 37.715594147648915 H 0.0 **** 0.06
30281 C 60.073689467426505 95.05355704428706 77.93901728181305 C 0.0 **** -0.24
30282 H 60.51689960114527 94.09432485238139 77.67142255603204 H 0.0 **** 0.06
30283 H 59.00233384269859 95.02881244985315 77.7351705485874 H 0.0 **** 0.06
30284 H 60.53699509225612 95.84541246988516 77.34985051679564 H 0.0 **** 0.06
30285 H 60.23764993602231 95.2461467537857 78.99953967930782 H 0.0 **** 0.06
30286 C 103.87241265515955 69.56316378549927 9.706013583451863 C 0.0 **** -0.24
30287 H 104.8116516089857 70.05317134381542 9.963043441894001 H 0.0 **** 0.06
30288 H 103.34154563104697 70.16131058857387 8.964948001201776 H 0.0 **** 0.06
30289 H 103.25816842572134 69.46294369165324 10.600575757869393 H 0.0 **** 0.06
30290 H 104.07943125230199 68.57484888240464 9.294751447766018 H 0.0 **** 0.06
30291 C 110.2138262235285 93.04744728432769 97.93194667742512 C 0.0 **** -0.24
30292 H 109.55317931917138 92.18417311985377 97.8452229652828 H 0.0 **** 0.06
30293 H 110.71607028075132 93.02500986092161 98.8991700398756 H 0.0 **** 0.06
30294 H 109.62724140701611 93.96290647135373 97.84760599978989 H 0.0 **** 0.06
30295 H 110.95564297972938 93.0174163482369 97.13485727924308 H 0.0 **** 0.06
30296 C 82.60171706916749 105.27451443734647 38.99709444889862 C 0.0 **** -0.24
30297 H 82.45568879586511 104.7860095295615 39.96088244167379 H 0.0 **** 0.06
30298 H 82.74207515270886 104.51855998266154 38.224408205229 H 0.0 **** 0.06
30299 H 83.48209061293677 105.91513799230988 39.04502584303788 H 0.0 **** 0.06
30300 H 81.72552174620154 105.87760472487406 38.7598553429342 H 0.0 **** 0.06
30301 C 99.44334025698468 26.982125055451945 86.66536956035702 C 0.0 **** -0.24
30302 H 99.46478133332954 26.03747316890602 86.12110427432157 H 0.0 **** 0.06
30303 H 100.45692441137322 27.37462138116001 86.74999447896755 H 0.0 **** 0.06
30304 H 99.03231419718351 26.818203394111094 87.66107623024058 H 0.0 **** 0.06
30305 H 98.82057232076919 27.69644613940713 86.12697933702322 H 0.0 **** 0.06
30306 C 68.77431980488598 75.74453475822123 61.31686838973677 C 0.0 **** -0.24
30307 H 68.08787438179479 74.90789304023093 61.186726653183015 H 0.0 **** 0.06
30308 H 69.79586984600873 75.36871062357001 61.37857994987816 H 0.0 **** 0.06
30309 H 68.52663136312385 76.27753426933032 62.234486760661554 H 0.0 **** 0.06
30310 H 68.68687403143463 76.42180492063267 60.468099963715474 H 0.0 **** 0.06
30311 C 97.08481089520538 26.010976819491816 9.727804398547818 C 0.0 **** -0.24
30312 H 97.16869745653739 25.163706574831394 10.408058546432471 H 0.0 **** 0.06
30313 H 96.85720121504193 26.91248633346879 10.296431666791051 H 0.0 **** 0.06
30314 H 96.28769756607167 25.82255459477119 9.009096584593152 H 0.0 **** 0.06
30315 H 98.02759851699301 26.14409791531375 9.197374555761598 H 0.0 **** 0.06
30316 C 31.130770809333626 44.31667870517475 60.1147506037222 C 0.0 **** -0.24
30317 H 31.371274245602166 43.28843187114745 60.38576190748711 H 0.0 **** 0.06
30318 H 31.469247964059917 44.512294651995376 59.096605109220604 H 0.0 **** 0.06
30319 H 31.632240678503365 44.999507689523966 60.8014194957988 H 0.0 **** 0.06
30320 H 30.053100278565154 44.465768210283045 60.17434126316476 H 0.0 **** 0.06
30321 C 65.1710611084113 57.56119034207673 26.767310293907713 C 0.0 **** -0.24
30322 H 64.43163108208117 56.77422146206 26.914295831422805 H 0.0 **** 0.06
30323 H 65.89033765625874 57.540377823811866 27.586209956377672 H 0.0 **** 0.06
30324 H 64.67173107729668 58.52949818488689 26.746192633867707 H 0.0 **** 0.06
30325 H 65.69113768749746 57.398535757528236 25.822888547176746 H 0.0 **** 0.06
30326 C 71.86232880593585 90.10959130336589 105.18985282120487 C 0.0 **** -0.24
30327 H 72.00216698900046 91.1771480341328 105.01810737329072 H 0.0 **** 0.06
30328 H 72.55807287113474 89.7719597689571 105.95861985428347 H 0.0 **** 0.06
30329 H 72.05016969145964 89.56577203866331 104.26392951028967 H 0.0 **** 0.06
30330 H 70.83981884310302 89.92552653279456 105.5187465128766 H 0.0 **** 0.06
30331 C 3.7680480924290265 97.03626298825111 42.793339256457216 C 0.0 **** -0.24
30332 H 3.189504202900139 96.33340389957125 43.39368972304453 H 0.0 **** 0.06
30333 H 3.301507299150998 98.02046539068002 42.83650032291797 H 0.0 **** 0.06
30334 H 3.79786834289348 96.69157698960434 41.759225178971235 H 0.0 **** 0.06
30335 H 4.784292515409959 97.09698920817279 43.18503461429901 H 0.0 **** 0.06
30336 C 55.83544279690517 113.03965798873082 14.060760146733347 C 0.0 **** -0.24
30337 H 55.041324872382006 112.89635759061446 13.328066304757662 H 0.0 **** 0.06
30338 H 55.628397872453434 112.43610249837089 14.944305678224541 H 0.0 **** 0.06
30339 H 55.88372251965927 114.09164523583951 14.342153926741304 H 0.0 **** 0.06
30340 H 56.788493672774734 112.73558228411028 13.627588627326713 H 0.0 **** 0.06
30341 C 38.37318390921838 13.020966882234088 71.82827372109287 C 0.0 **** -0.24
30342 H 38.91915076196953 12.302762914827696 72.43987473687106 H 0.0 **** 0.06
30343 H 37.84998631124018 13.726046444553212 72.47472609873233 H 0.0 **** 0.06
30344 H 37.65108933687982 12.494054600454923 71.20588048931138 H 0.0 **** 0.06
30345 H 39.07425755241558 13.563220563823041 71.19278310822422 H 0.0 **** 0.06
30346 C 81.88043594719319 82.09645251701689 24.854077744215658 C 0.0 **** -0.24
30347 H 81.7803586025614 81.6407980334144 25.839324964351334 H 0.0 **** 0.06
30348 H 81.16712003050152 81.63900720465843 24.16813184877293 H 0.0 **** 0.06
30349 H 82.89402514279921 81.93980346998254 24.48359612146959 H 0.0 **** 0.06
30350 H 81.68095760845391 83.16554908386078 24.92550227437289 H 0.0 **** 0.06
30351 C 107.1589459529549 13.887457257904135 79.82043701194891 C 0.0 **** -0.24
30352 H 107.01388750005276 14.921456764916229 80.13444442968114 H 0.0 **** 0.06
30353 H 106.51697277837985 13.673557246134468 78.96616846112961 H 0.0 **** 0.06
30354 H 106.90667479129212 13.219624997927717 80.64322544371414 H 0.0 **** 0.06
30355 H 108.20160597794981 13.737927214147401 79.5374220346504 H 0.0 **** 0.06
30356 C 16.278065047447754 25.08457223647946 113.40217494655505 C 0.0 **** -0.24
30357 H 16.780367156136222 24.581252319690577 114.2291418668593 H 0.0 **** 0.06
30358 H 15.213344236293935 24.84978889374125 113.42768973509811 H 0.0 **** 0.06
30359 H 16.70337914260321 24.743338528056768 112.4578682778482 H 0.0 **** 0.06
30360 H 16.41568349755633 26.161995278378413 113.49543976537382 H 0.0 **** 0.06
30361 C 91.433380803521 57.73836618247863 106.43052954419541 C 0.0 **** -0.24
30362 H 90.46401391343647 57.96662947330634 105.98686268062868 H 0.0 **** 0.06
30363 H 92.19504011469877 58.38026175743737 105.98851406226663 H 0.0 **** 0.06
30364 H 91.68138651313592 56.69423485645602 106.24031260329545 H 0.0 **** 0.06
30365 H 91.39022000522186 57.91137302967205 107.5054943284034 H 0.0 **** 0.06
30366 C 61.47193293491728 90.53725976239063 62.75211769128913 C 0.0 **** -0.24
30367 H 61.22667456020008 90.5747155125214 61.690132746754216 H 0.0 **** 0.06
30368 H 61.25104006543114 89.54335370003011 63.14175682428106 H 0.0 **** 0.06
30369 H 60.87859057478454 91.27776340186944 63.28746028683497 H 0.0 **** 0.06
30370 H 62.532066917805025 90.75378592097162 62.88705828861225 H 0.0 **** 0.06
30371 C 75.8854124437022 33.22595867971975 37.34530139294975 C 0.0 **** -0.24
30372 H 76.70515996444237 33.13193799688763 36.63258566656495 H 0.0 **** 0.06
30373 H 75.21762054612367 34.02560330318797 37.02645981589259 H 0.0 **** 0.06
30374 H 76.28742438448523 33.459524101759506 38.331482503248935 H 0.0 **** 0.06
30375 H 75.33417578680792 32.28686527119429 37.38994724755443 H 0.0 **** 0.06
30376 C 58.339848263419086 63.50035147852549 22.289298218042546 C 0.0 **** -0.24
30377 H 58.80158880527101 62.55177467182051 22.563892983281704 H 0.0 **** 0.06
30378 H 57.90417217828022 63.4166609982795 21.293077422700208 H 0.0 **** 0.06
30379 H 59.09509872259301 64.28588175708785 22.29115381328424 H 0.0 **** 0.06
30380 H 57.55816787435127 63.744962542463156 23.00847952315806 H 0.0 **** 0.06
30381 C 59.2046330427637 98.71496564755216 81.49242337145296 C 0.0 **** -0.24
30382 H 58.4038019472473 99.03792578355211 80.82679592704633 H 0.0 **** 0.06
30383 H 60.131812927255 98.6186667228032 80.92580212171057 H 0.0 **** 0.06
30384 H 58.94529861643986 97.7512164122559 81.93172016715448 H 0.0 **** 0.06
30385 H 59.336939700005786 99.45118940448958 82.28448524624542 H 0.0 **** 0.06
30386 C 58.986318632652726 83.58070484911963 19.657133918488796 C 0.0 **** -0.24
30387 H 59.99213750579416 83.94186182912765 19.44122046424596 H 0.0 **** 0.06
30388 H 59.02238853427747 82.51115837530399 19.865606674905337 H 0.0 **** 0.06
30389 H 58.34301088949421 83.76128116915554 18.796399435810386 H 0.0 **** 0.06
30390 H 58.58968507455114 84.10749293799347 20.52491307853235 H 0.0 **** 0.06
30391 C 43.88392538361006 31.534910853555004 59.06292508278261 C 0.0 **** -0.24
30392 H 42.984234384378055 31.940911925550722 59.526493686811676 H 0.0 **** 0.06
30393 H 44.76036074010403 31.868357798189777 59.61797707644726 H 0.0 **** 0.06
30394 H 43.95049104311727 31.885250563833836 58.03219682668151 H 0.0 **** 0.06
30395 H 43.838194399200916 30.4454551133378 59.07329227795236 H 0.0 **** 0.06
30396 C 106.45246659154873 71.19222063145972 63.87506493935956 C 0.0 **** -0.24
30397 H 107.44382280531158 70.90631539304184 63.52385475525753 H 0.0 **** 0.06
30398 H 106.28244498435546 70.77048715161555 64.86589141357177 H 0.0 **** 0.06
30399 H 105.69982200282048 70.81174906759404 63.1844738382764 H 0.0 **** 0.06
30400 H 106.38382405911257 72.27896957345266 63.92496985839415 H 0.0 **** 0.06
30401 C 68.0300331022791 115.23010631281053 34.48115389505149 C 0.0 **** -0.24
30402 H 67.6221726243612 114.22509003781057 34.580921488350725 H 0.0 **** 0.06
30403 H 67.38965055730088 115.93631674465482 35.01069203388977 H 0.0 **** 0.06
30404 H 68.07508324312069 115.50064732364628 33.42535812686788 H 0.0 **** 0.06
30405 H 69.03305881404648 115.25875123749256 34.90544669005459 H 0.0 **** 0.06
30406 C 11.334006276460272 101.11146825232143 19.127562183277178 C 0.0 **** -0.24
30407 H 10.743131176889634 101.95273595837841 19.4899871052487 H 0.0 **** 0.06
30408 H 11.961300897834178 100.7342997273879 19.93570199674852 H 0.0 **** 0.06
30409 H 11.963133745849078 101.43943515960456 18.30043168852893 H 0.0 **** 0.06
30410 H 10.666803022584986 100.31910137921028 18.78559988238959 H 0.0 **** 0.06
30411 C 89.88966648437935 16.89552068031469 114.83980036193364 C 0.0 **** -0.24
30412 H 89.63227897741933 17.875349247237878 114.43925057967054 H 0.0 **** 0.06
30413 H 90.974004768528 16.77838317836226 114.84261564437232 H 0.0 **** 0.06
30414 H 89.4415819278646 16.120407976587543 114.21780590778182 H 0.0 **** 0.06
30415 H 89.51126337621344 16.8080481160589 115.858197232006 H 0.0 **** 0.06
30416 C 101.39577722371236 14.896902618348477 69.94418664447068 C 0.0 **** -0.24
30417 H 101.51400867688292 14.9704116083347 71.0246195332939 H 0.0 **** 0.06
30418 H 102.06035429742309 14.12354561128494 69.55828790303468 H 0.0 **** 0.06
30419 H 101.64716703271895 15.854097975194222 69.48569252878434 H 0.0 **** 0.06
30420 H 100.36357186603892 14.640514274905172 69.70781699451396 H 0.0 **** 0.06
30421 C 14.657284352894408 36.56250928840507 15.23283469524921 C 0.0 **** -0.24
30422 H 14.25822803500472 37.23166651810487 14.46966938734272 H 0.0 **** 0.06
30423 H 15.32270302100892 37.11904968108533 15.892402212695174 H 0.0 **** 0.06
30424 H 15.210222584161158 35.75484914136871 14.75406867073525 H 0.0 **** 0.06
30425 H 13.834871416620217 36.14469686035383 15.8146855092063 H 0.0 **** 0.06
30426 C 4.216093519605083 67.48074002310187 107.2179328815715 C 0.0 **** -0.24
30427 H 4.106533703885681 67.95918683626803 106.24472229536839 H 0.0 **** 0.06
30428 H 4.539834094939092 66.44902157587188 107.0796843571605 H 0.0 **** 0.06
30429 H 3.2592624828876673 67.49490491794285 107.73952492424412 H 0.0 **** 0.06
30430 H 4.958241816229224 68.01975744773296 107.80648080121698 H 0.0 **** 0.06
30431 C 112.35963731821005 7.977296082002894 84.98417524339044 C 0.0 **** -0.24
30432 H 111.76493567565907 7.660812179447376 85.84132428211154 H 0.0 **** 0.06
30433 H 113.40884175648674 7.744737915058934 85.1640648002907 H 0.0 **** 0.06
30434 H 112.24460558069183 9.051560998165527 84.83975521286385 H 0.0 **** 0.06
30435 H 112.01782106587349 7.452770560346536 84.0914377518306 H 0.0 **** 0.06
30436 C 87.83624484968763 63.21573122325772 21.346416561058618 C 0.0 **** -0.24
30437 H 87.42350923111599 64.03720950464545 20.760381301355437 H 0.0 **** 0.06
30438 H 87.02423193312491 62.58033250786664 21.70143079803651 H 0.0 **** 0.06
30439 H 88.3843258003051 63.61632909754712 22.198364381232977 H 0.0 **** 0.06
30440 H 88.51077829416325 62.62791849271561 20.723218819356617 H 0.0 **** 0.06
30441 C 35.6739778248604 61.07842985480744 83.26289459158525 C 0.0 **** -0.24
30442 H 34.717411946820164 61.44202338215257 83.63747167206579 H 0.0 **** 0.06
30443 H 35.845682017608624 61.47469381694361 82.26188004555128 H 0.0 **** 0.06
30444 H 35.658428233531254 59.98859472495366 83.22435588773064 H 0.0 **** 0.06
30445 H 36.47266203268657 61.4069243462244 83.92696641386658 H 0.0 **** 0.06
30446 C 76.27196335320644 8.302742421171416 105.76661598295456 C 0.0 **** -0.24
30447 H 76.7355985715318 7.355117844759178 106.04174255647717 H 0.0 **** 0.06
30448 H 76.94003451180413 8.855325351443696 105.10572143310014 H 0.0 **** 0.06
30449 H 76.08455873407115 8.888830496840512 106.66712301331555 H 0.0 **** 0.06
30450 H 75.32984744760074 8.111383001408598 105.25489767112241 H 0.0 **** 0.06
30451 C 45.24910279641858 51.37574647045003 88.63153746892736 C 0.0 **** -0.24
30452 H 46.10738091897669 51.67417162253862 89.23359199372118 H 0.0 **** 0.06
30453 H 45.062717888098376 52.13022061410953 87.86633026378074 H 0.0 **** 0.06
30454 H 44.37220251193055 51.280371301718354 89.27126551809916 H 0.0 **** 0.06
30455 H 45.45681891747371 50.41748047918046 88.15390796874718 H 0.0 **** 0.06
30456 C 17.87666676704322 87.99490803245591 86.15040955643214 C 0.0 **** -0.24
30457 H 18.799183341784698 87.98258887732315 86.73037932345319 H 0.0 **** 0.06
30458 H 18.034959932431946 88.55606851200102 85.22923651746642 H 0.0 **** 0.06
30459 H 17.086687812472093 88.46844704530687 86.73370676518316 H 0.0 **** 0.06
30460 H 17.58676818295814 86.97330107024507 85.90758554759881 H 0.0 **** 0.06
30461 C 56.77607189957989 97.81523029951859 61.81548449164126 C 0.0 **** -0.24
30462 H 56.525814821608435 96.75468900859781 61.797960351620475 H 0.0 **** 0.06
30463 H 56.344353457956444 98.27491129396867 62.703880832402035 H 0.0 **** 0.06
30464 H 56.374298585574834 98.29762647635874 60.92391635677376 H 0.0 **** 0.06
30465 H 57.85996587721246 97.93239653320649 61.835042622677065 H 0.0 **** 0.06
30466 C 83.62809419552394 22.60860832000492 54.82145416757774 C 0.0 **** -0.24
30467 H 83.50006662559707 23.496288602768516 54.20242736662237 H 0.0 **** 0.06
30468 H 84.31719792592907 21.92032940877425 54.3311758871651 H 0.0 **** 0.06
30469 H 82.66396771901952 22.120436009484905 54.96030816111357 H 0.0 **** 0.06
30470 H 84.03236584445722 22.898038552452476 55.791633608972404 H 0.0 **** 0.06
30471 C 39.250761161395346 84.5224615802195 71.21387876809871 C 0.0 **** -0.24
30472 H 39.99929149631534 83.81044361235217 71.56334747741857 H 0.0 **** 0.06
30473 H 38.329743168323986 84.3875464686038 71.78084641561918 H 0.0 **** 0.06
30474 H 39.05464136746482 84.35213767345044 70.15515578147165 H 0.0 **** 0.06
30475 H 39.62063968825695 85.53762962200219 71.35602041139958 H 0.0 **** 0.06
30476 C 15.153580096070698 50.43940839766179 46.111092329763096 C 0.0 **** -0.24
30477 H 15.844039517461653 50.92578267897619 46.80087740976899 H 0.0 **** 0.06
30478 H 14.415662526560396 51.163602046130734 45.76583622381713 H 0.0 **** 0.06
30479 H 14.649144433783789 49.61966956600972 46.621313250408036 H 0.0 **** 0.06
30480 H 15.70919626263867 50.050396819914255 45.25769955135354 H 0.0 **** 0.06
30481 C 63.0240046420581 14.206377510309316 23.039143763517515 C 0.0 **** -0.24
30482 H 64.06552052196972 14.514007630726674 22.945117477679077 H 0.0 **** 0.06
30483 H 62.95152034607632 13.12702153333861 22.905580086021416 H 0.0 **** 0.06
30484 H 62.42694904250709 14.708474800370404 22.278121125581137 H 0.0 **** 0.06
30485 H 62.65400456118742 14.47666495424609 24.02856998026867 H 0.0 **** 0.06
30486 C 110.44543832827208 33.4628091059152 105.8266605388808 C 0.0 **** -0.24
30487 H 111.3452225648158 33.07955283280836 105.34646010851657 H 0.0 **** 0.06
30488 H 110.62762681509304 33.585061444519795 106.89435397587094 H 0.0 **** 0.06
30489 H 109.62527057138328 32.76056657834886 105.6754723453438 H 0.0 **** 0.06
30490 H 110.18338267917511 34.4268835704479 105.38985410142539 H 0.0 **** 0.06
30491 C 57.33506696205677 86.05784235677862 71.28317710357769 C 0.0 **** -0.24
30492 H 57.649106230453924 85.17097686718532 70.73227010007541 H 0.0 **** 0.06
30493 H 57.744945554960964 86.94728598657643 70.8028884211849 H 0.0 **** 0.06
30494 H 57.70085173657179 85.99697360693862 72.30836590162485 H 0.0 **** 0.06
30495 H 56.24646059299846 86.11583074991736 71.28787745594214 H 0.0 **** 0.06
30496 C 7.384370393783588 73.19184157738778 16.820582871625334 C 0.0 **** -0.24
30497 H 7.976349590512111 73.46345716987605 17.694854100111883 H 0.0 **** 0.06
30498 H 6.979113772648363 72.18901702548243 16.954581112806352 H 0.0 **** 0.06
30499 H 8.017070917075445 73.21371492888807 15.933583363505363 H 0.0 **** 0.06
30500 H 6.56652974240148 73.9018042973733 16.701978085301562 H 0.0 **** 0.06
30501 C 100.58275625814181 11.793453910071634 56.75827240978849 C 0.0 **** -0.24
30502 H 100.36845130142049 11.300260510370208 57.706307852567676 H 0.0 **** 0.06
30503 H 100.24089158023227 12.827814940355907 56.801854374262035 H 0.0 **** 0.06
30504 H 100.06470346662252 11.27240496404697 55.95292101096234 H 0.0 **** 0.06
30505 H 101.65688690823873 11.773606199105814 56.573391415510486 H 0.0 **** 0.06
30506 C 60.88834051112353 54.249450747493086 108.8511747115946 C 0.0 **** -0.24
30507 H 60.56605472049229 54.52133043872311 109.8568406185326 H 0.0 **** 0.06
30508 H 60.71669669378997 53.18560167564749 108.68960719286729 H 0.0 **** 0.06
30509 H 61.95083568620839 54.467746650114265 108.73992048557834 H 0.0 **** 0.06
30510 H 60.320454458889856 54.825942649776806 108.12069603880272 H 0.0 **** 0.06
30511 C 20.807964878101416 85.53713178397362 71.3044047260766 C 0.0 **** -0.24
30512 H 20.63927998235272 86.61121703990432 71.23314624399188 H 0.0 **** 0.06
30513 H 21.179845055894333 85.29367311535299 72.29940951786506 H 0.0 **** 0.06
30514 H 21.54191564343472 85.2341435318769 70.55761496200324 H 0.0 **** 0.06
30515 H 19.870626918323296 85.01046951904351 71.12734564608473 H 0.0 **** 0.06
30516 C 94.03227607868416 33.85132075349753 104.5139391987372 C 0.0 **** -0.24
30517 H 93.13206274846263 33.6998120068113 105.10971568742855 H 0.0 **** 0.06
30518 H 93.79740592821139 33.714098230473894 103.45879821240868 H 0.0 **** 0.06
30519 H 94.79227976799919 33.130413911877554 104.81505257470171 H 0.0 **** 0.06
30520 H 94.40726315564541 34.86215199094465 104.67432765409397 H 0.0 **** 0.06
30521 C 109.07399775054321 99.37325346328856 31.55428471626027 C 0.0 **** -0.24
30522 H 109.58303080860898 99.88614477202185 32.37009375237395 H 0.0 **** 0.06
30523 H 108.01577419938945 99.6377759746815 31.563196081863623 H 0.0 **** 0.06
30524 H 109.18058812198024 98.29673384436983 31.678572368581 H 0.0 **** 0.06
30525 H 109.51575820583699 99.67517536281626 30.60467246952473 H 0.0 **** 0.06
30526 C 55.63339333729283 99.1591249356735 57.08453780268022 C 0.0 **** -0.24
30527 H 56.0469615142584 98.42835216363825 57.778809373949045 H 0.0 **** 0.06
30528 H 55.51737839136969 98.70211302429738 56.10109218756047 H 0.0 **** 0.06
30529 H 56.30831224864444 100.01247815379736 57.01128236806946 H 0.0 **** 0.06
30530 H 54.66208571194527 99.49508363338497 57.44640899033851 H 0.0 **** 0.06
30531 C 111.40977467215188 76.3884436576135 68.61796226225432 C 0.0 **** -0.24
30532 H 110.42856810762308 76.69549646981103 68.98051546463385 H 0.0 **** 0.06
30533 H 111.93566604217827 77.25470212539909 68.21651352403423 H 0.0 **** 0.06
30534 H 111.29035788886245 75.63983259890307 67.83480285067566 H 0.0 **** 0.06
30535 H 111.9841470363867 75.96420316479144 69.44130540281311 H 0.0 **** 0.06
30536 C 5.499260086584528 27.957326845202047 69.65973271092463 C 0.0 **** -0.24
30537 H 6.467397773858039 27.972993275302834 69.15806688764985 H 0.0 **** 0.06
30538 H 5.150285908113361 26.927793233186215 69.7452147051269 H 0.0 **** 0.06
30539 H 4.78175704012979 28.53775306783426 69.08040267672186 H 0.0 **** 0.06
30540 H 5.599310365577892 28.391758292807445 70.65420130808235 H 0.0 **** 0.06
30541 C 110.69426318190145 104.58491952506961 30.51486896371408 C 0.0 **** -0.24
30542 H 110.23308973900441 104.01925727029356 31.323968943596128 H 0.0 **** 0.06
30543 H 111.16089938141445 105.48290017959701 30.91981087953458 H 0.0 **** 0.06
30544 H 109.9318070975857 104.86715608005039 29.78849589856997 H 0.0 **** 0.06
30545 H 111.44997722932627 103.9701724617625 30.027771666179696 H 0.0 **** 0.06
30546 C 52.91300694009409 10.735829920317514 94.51197505658064 C 0.0 **** -0.24
30547 H 52.910481147323885 11.184262246651386 95.5061901772479 H 0.0 **** 0.06
30548 H 53.586819297037664 9.879426630705023 94.50265652024098 H 0.0 **** 0.06
30549 H 53.24856369330399 11.471984633568894 93.78220084476288 H 0.0 **** 0.06
30550 H 51.90383647165791 10.408096578086173 94.25956971186781 H 0.0 **** 0.06
30551 C 74.83699693151782 56.37223408959831 111.24033117140243 C 0.0 **** -0.24
30552 H 74.32386322092796 56.756608300348304 112.12209408798333 H 0.0 **** 0.06
30553 H 75.68647138591747 57.01415250010629 111.00636647976182 H 0.0 **** 0.06
30554 H 74.14771096743588 56.3590402702423 110.3965045937228 H 0.0 **** 0.06
30555 H 75.18989004683115 55.360248941104835 111.43722968210659 H 0.0 **** 0.06
30556 C 27.71530800890315 10.036515300623591 103.28106518820039 C 0.0 **** -0.24
30557 H 27.67112845564038 9.420652814798189 104.17951615495372 H 0.0 **** 0.06
30558 H 28.578551682704095 9.745054819523276 102.68352301382498 H 0.0 **** 0.06
30559 H 27.80470385969648 11.085143872688235 103.56368156911014 H 0.0 **** 0.06
30560 H 26.804248031629925 9.894060061384408 102.69849856710073 H 0.0 **** 0.06
30561 C 62.75604340550058 113.42679712644322 98.36443867134551 C 0.0 **** -0.24
30562 H 62.56165952507524 112.65093447423243 97.62485532370368 H 0.0 **** 0.06
30563 H 62.52386359839022 113.04631886533961 99.35930067296596 H 0.0 **** 0.06
30564 H 62.13143100603958 114.29519054959252 98.15308869266511 H 0.0 **** 0.06
30565 H 63.805884649177926 113.7151779008025 98.32068484410735 H 0.0 **** 0.06
30566 C 69.38850752696926 75.92823004503703 105.27676516356473 C 0.0 **** -0.24
30567 H 69.50182802933796 76.0050569378983 106.35763452893536 H 0.0 **** 0.06
30568 H 69.95465074385397 76.72538204732984 104.79440728001202 H 0.0 **** 0.06
30569 H 68.33492509327174 76.020241633522 105.01418671816452 H 0.0 **** 0.06
30570 H 69.76338037889322 74.96127812035189 104.94012007272522 H 0.0 **** 0.06
30571 C 29.865540444036867 11.103766478097725 85.25105766823293 C 0.0 **** -0.24
30572 H 29.54092417928203 11.710711887968728 84.40630500483523 H 0.0 **** 0.06
30573 H 29.1161828429463 10.33995896172297 85.45971489675712 H 0.0 **** 0.06
30574 H 29.989531633630207 11.739398575970199 86.12796392901598 H 0.0 **** 0.06
30575 H 30.815365853357775 10.62618465894036 85.01099759370202 H 0.0 **** 0.06
30576 C 18.400477827732857 70.98601113219556 100.36175359029232 C 0.0 **** -0.24
30577 H 18.085323228408527 70.17838632478605 99.70016809331418 H 0.0 **** 0.06
30578 H 19.150512860650537 70.61251955144695 101.05927281574361 H 0.0 **** 0.06
30579 H 17.539398221303315 71.35765414557443 100.91728211432974 H 0.0 **** 0.06
30580 H 18.827619011252864 71.79449806986936 99.76851937784454 H 0.0 **** 0.06
30581 C 2.455464610626592 36.87157566781201 25.530749338887176 C 0.0 **** -0.24
30582 H 1.8023052574324652 37.63089833670648 25.09896630944624 H 0.0 **** 0.06
30583 H 2.516970592617099 37.01704790246646 26.609283251979548 H 0.0 **** 0.06
30584 H 3.450589278509568 36.95935284514468 25.094432217124393 H 0.0 **** 0.06
30585 H 2.0518772703972274 35.88168755209858 25.318647214480478 H 0.0 **** 0.06
30586 C 51.18865977436269 24.063384704304212 104.35114050724233 C 0.0 **** -0.24
30587 H 50.95714906257956 24.199856725334598 103.29445996358537 H 0.0 **** 0.06
30588 H 51.48220202496816 25.019332981537474 104.78521355495333 H 0.0 **** 0.06
30589 H 52.00604505065661 23.350838873779935 104.45438881250438 H 0.0 **** 0.06
30590 H 50.30791748100762 23.683851052439167 104.87014323516186 H 0.0 **** 0.06
30591 C 110.34943512041282 76.84349776622837 46.00228346506435 C 0.0 **** -0.24
30592 H 109.80603025669502 76.9675356910293 45.06624808675684 H 0.0 **** 0.06
30593 H 109.67574544271575 77.02779792513809 46.83977094954889 H 0.0 **** 0.06
30594 H 111.17700362751191 77.5529271140972 46.03879373225493 H 0.0 **** 0.06
30595 H 110.73830535807008 75.82779146527595 46.066143761764806 H 0.0 **** 0.06
30596 C 19.28586996120302 56.048091238382 94.89266237273387 C 0.0 **** -0.24
30597 H 20.363694171931087 56.174008022064655 94.79113171144945 H 0.0 **** 0.06
30598 H 19.077022670140224 55.338534396997254 95.69340294352719 H 0.0 **** 0.06
30599 H 18.875122285711655 55.67147115239227 93.956136246244 H 0.0 **** 0.06
30600 H 18.829004585057987 57.00871964062071 95.12991253393119 H 0.0 **** 0.06
30601 C 103.2229836763616 59.137022649335734 21.17907924249772 C 0.0 **** -0.24
30602 H 102.52040875997272 59.796084637287464 20.669158336050316 H 0.0 **** 0.06
30603 H 103.87000456100208 58.656939739813026 20.44508406852043 H 0.0 **** 0.06
30604 H 102.67106137986059 58.375522424860094 21.731075441139353 H 0.0 **** 0.06
30605 H 103.82989571955204 59.719040181889 21.872557368936583 H 0.0 **** 0.06
30606 C 91.63038698151755 75.78943855258342 44.61417458770461 C 0.0 **** -0.24
30607 H 91.42722657569144 76.35297031965735 45.52486023936436 H 0.0 **** 0.06
30608 H 91.22108811754593 74.78420084275825 44.710559733079634 H 0.0 **** 0.06
30609 H 92.70682015917517 75.73183874903364 44.455371621695235 H 0.0 **** 0.06
30610 H 91.16457961182762 76.291456241074 43.76537345304894 H 0.0 **** 0.06
30611 C 112.2033485378321 83.55672018633423 85.22102248102834 C 0.0 **** -0.24
30612 H 113.01459730296554 84.06043581689654 85.74546836976282 H 0.0 **** 0.06
30613 H 111.48184402482624 83.17874400273725 85.94546834183166 H 0.0 **** 0.06
30614 H 112.6060871100621 82.72557024373802 84.6419361458951 H 0.0 **** 0.06
30615 H 111.71114632155837 84.2612952132297 84.55074451190998 H 0.0 **** 0.06
30616 C 34.29149037525716 76.83774324117782 31.745974088653213 C 0.0 **** -0.24
30617 H 34.1192343942763 76.0754623907814 32.505930894185184 H 0.0 **** 0.06
30618 H 33.93506692290827 77.80069239711419 32.10985280610987 H 0.0 **** 0.06
30619 H 33.755065141990215 76.57042701575956 30.835378912177305 H 0.0 **** 0.06
30620 H 35.35855666566366 76.90121364123102 31.53249668548912 H 0.0 **** 0.06
30621 C 14.636894083271045 109.01054963568059 17.640089432371862 C 0.0 **** -0.24
30622 H 15.399953989602409 108.95258714857705 18.415022572754506 H 0.0 **** 0.06
30623 H 14.818507820434377 109.8847682932819 17.01452986710988 H 0.0 **** 0.06
30624 H 13.653691175235906 109.09360251285736 18.104471688532172 H 0.0 **** 0.06
30625 H 14.672525882230389 108.11046361684798 17.026294603875268 H 0.0 **** 0.06
30626 C 73.53663706406758 54.392935884769145 55.65053870721863 C 0.0 **** -0.24
30627 H 73.27764476506945 53.89237702008131 56.58355819765242 H 0.0 **** 0.06
30628 H 73.06642858163633 55.37655421742869 55.62288758328995 H 0.0 **** 0.06
30629 H 73.18330670457306 53.79694920557711 54.80869482272104 H 0.0 **** 0.06
30630 H 74.61896540100588 54.505569751769144 55.58794850384953 H 0.0 **** 0.06
30631 C 84.21997086108222 66.51540711891931 26.83734730142404 C 0.0 **** -0.24
30632 H 84.19373316102761 67.3398929943628 26.12373447240425 H 0.0 **** 0.06
30633 H 83.95433526733868 66.88537675732175 27.828063608346447 H 0.0 **** 0.06
30634 H 85.22275053247685 66.09032148198048 26.864981066412028 H 0.0 **** 0.06
30635 H 83.5077634744724 65.74850356660278 26.532135639460805 H 0.0 **** 0.06
30636 C 113.3643962860635 63.98367186405753 64.68825698080593 C 0.0 **** -0.24
30637 H 114.41857424096871 64.26080605673388 64.68208977076469 H 0.0 **** 0.06
30638 H 113.27313310278231 62.91024260683656 64.85702981598956 H 0.0 **** 0.06
30639 H 112.91704292175518 64.23990608016453 63.72747365841056 H 0.0 **** 0.06
30640 H 112.85105941130347 64.52326630630574 65.4834623530013 H 0.0 **** 0.06
30641 C 70.9385223140444 111.12455506494568 10.40055835940602 C 0.0 **** -0.24
30642 H 71.77239891479115 110.81317807853176 9.770136410105351 H 0.0 **** 0.06
30643 H 70.38781068327432 111.9231496351317 9.904082847956445 H 0.0 **** 0.06
30644 H 71.31984479292225 111.4845000047704 11.355267879026059 H 0.0 **** 0.06
30645 H 70.2758760575187 110.27622080907463 10.570055996346667 H 0.0 **** 0.06
30646 C 85.35323135842503 106.58623040843945 11.894360854581578 C 0.0 **** -0.24
30647 H 85.63033082544166 107.61393854411571 12.128912385278085 H 0.0 **** 0.06
30648 H 85.78259905253259 106.30415670197762 10.932663188840905 H 0.0 **** 0.06
30649 H 84.26773049058679 106.50510147791589 11.845941152418945 H 0.0 **** 0.06
30650 H 85.73289445434892 105.92181968959362 12.67118962477457 H 0.0 **** 0.06
30651 C 36.26092850352927 104.92723160806514 77.57288384804241 C 0.0 **** -0.24
30652 H 35.626147779986724 105.65713821519228 77.07077796679027 H 0.0 **** 0.06
30653 H 37.07929496214848 105.44164680044634 78.07685797108076 H 0.0 **** 0.06
30654 H 36.66584487403378 104.23207304957953 76.83799214297915 H 0.0 **** 0.06
30655 H 35.66977619769358 104.37714720407689 78.30626557421095 H 0.0 **** 0.06
30656 C 74.06415898745765 19.3778857458677 99.91645232247888 C 0.0 **** -0.24
30657 H 74.53432444899475 18.420665842316225 100.14187426310384 H 0.0 **** 0.06
30658 H 73.21970044303859 19.218567984254662 99.24541118310559 H 0.0 **** 0.06
30659 H 74.79054530823034 20.034656321898126 99.43713623347034 H 0.0 **** 0.06
30660 H 73.7129651389432 19.836612701074756 100.84033433403798 H 0.0 **** 0.06
30661 C 105.18046856961246 55.394895534175966 60.285558557250155 C 0.0 **** -0.24
30662 H 105.5737028193517 54.38509751961765 60.16883092506602 H 0.0 **** 0.06
30663 H 104.30129805020533 55.516811687741786 59.65114833721668 H 0.0 **** 0.06
30664 H 105.9418286339669 56.11770713329953 59.99532468652883 H 0.0 **** 0.06
30665 H 104.90204982194734 55.558541942619904 61.32687092056558 H 0.0 **** 0.06
30666 C 28.532652151724562 13.706153240290945 43.90146406143509 C 0.0 **** -0.24
30667 H 28.2301301092142 12.683514343758588 44.12672757920953 H 0.0 **** 0.06
30668 H 27.64605290546004 14.32162587765552 43.74695581111193 H 0.0 **** 0.06
30669 H 29.143257837990035 13.714143503156834 42.99890914789506 H 0.0 **** 0.06
30670 H 29.110368619303614 14.10537330614099 44.73535170310544 H 0.0 **** 0.06
30671 C 101.44432132097475 30.91323240574468 115.37665959013867 C 0.0 **** -0.24
30672 H 100.50462179570592 31.405811524214045 115.62566590330385 H 0.0 **** 0.06
30673 H 102.04928675374508 30.808998325700657 116.27808163899343 H 0.0 **** 0.06
30674 H 101.98525309871783 31.51193915692994 114.64298891346212 H 0.0 **** 0.06
30675 H 101.23816110175405 29.927450188771616 114.96052391391109 H 0.0 **** 0.06
30676 C 68.63161187239223 10.457439904642346 110.60628276481461 C 0.0 **** -0.24
30677 H 69.16447662017102 9.514019579245858 110.72998754172308 H 0.0 **** 0.06
30678 H 68.91907921017717 10.914401278629192 109.65922130846528 H 0.0 **** 0.06
30679 H 68.8876111440224 11.128190105783485 111.42547444234911 H 0.0 **** 0.06
30680 H 67.55752250555217 10.271532386449593 110.60928086172362 H 0.0 **** 0.06
30681 C 48.30012286555905 93.82614466565292 30.369206014528743 C 0.0 **** -0.24
30682 H 47.89746311073668 94.75840085077971 29.972577590503533 H 0.0 **** 0.06
30683 H 49.352992152445154 93.74097343318113 30.09784876830048 H 0.0 **** 0.06
30684 H 47.74703899460104 92.98467697888901 29.950364765860456 H 0.0 **** 0.06
30685 H 48.202511899813715 93.82137633510126 31.455011218264758 H 0.0 **** 0.06
30686 C 74.76791232859307 62.13857565485387 100.21849661010582 C 0.0 **** -0.24
30687 H 73.79137243255406 62.56012308389455 100.45670481548447 H 0.0 **** 0.06
30688 H 75.43399631225611 62.933174678861235 99.8793474037257 H 0.0 **** 0.06
30689 H 74.65919739889321 61.39433046474372 99.42941250140787 H 0.0 **** 0.06
30690 H 75.18645722568479 61.66763015129304 101.10721984136406 H 0.0 **** 0.06
30691 C 69.1983442903136 33.35115455651143 34.60755722460266 C 0.0 **** -0.24
30692 H 68.79698620245979 32.44873033023208 35.06951371435957 H 0.0 **** 0.06
30693 H 69.925879529575 33.074564681390086 33.844241371825206 H 0.0 **** 0.06
30694 H 69.68409842045033 33.962213176526575 35.36811151225399 H 0.0 **** 0.06
30695 H 68.38674871979094 33.91628575770389 34.150068572219396 H 0.0 **** 0.06
30696 C 108.20698003153609 95.51145478519857 64.20649756028972 C 0.0 **** -0.24
30697 H 107.45001638452334 96.26469380199495 63.98535136178867 H 0.0 **** 0.06
30698 H 107.72945093568887 94.53835488742135 64.31943596616708 H 0.0 **** 0.06
30699 H 108.72137009961432 95.77408385738102 65.1301778653216 H 0.0 **** 0.06
30700 H 108.92712084733887 95.47113705192038 63.38879022647636 H 0.0 **** 0.06
30701 C 65.56126237992467 93.04782696461453 77.60884221523594 C 0.0 **** -0.24
30702 H 66.31251514493613 92.46260202346204 78.14023912036703 H 0.0 **** 0.06
30703 H 65.68511200055245 92.90705603060121 76.5357018260732 H 0.0 **** 0.06
30704 H 65.68369624468455 94.10272805692576 77.85492797921154 H 0.0 **** 0.06
30705 H 64.56637726082286 92.71762231773019 77.90770681314734 H 0.0 **** 0.06
30706 C 112.03018025840655 107.84188982043331 70.44787366305894 C 0.0 **** -0.24
30707 H 112.57980238744864 106.92051599305908 70.63865967001766 H 0.0 **** 0.06
30708 H 111.74009511643808 108.2936329212626 71.39706826761454 H 0.0 **** 0.06
30709 H 111.1368627866519 107.61764584307932 69.86420411886132 H 0.0 **** 0.06
30710 H 112.66268292569553 108.53450281214141 69.89322861081828 H 0.0 **** 0.06
30711 C 61.83763908058734 72.29897941297031 75.07744086706228 C 0.0 **** -0.24
30712 H 62.70002042247984 72.61147260358894 75.6665215035512 H 0.0 **** 0.06
30713 H 62.09586943978769 72.32131403383119 74.01744183279413 H 0.0 **** 0.06
30714 H 61.005317453283624 72.97746613670199 75.26275948801589 H 0.0 **** 0.06
30715 H 61.551871925775 71.28656123032937 75.36042679079821 H 0.0 **** 0.06
30716 C 71.98622020358458 74.36076515252459 34.43407807575903 C 0.0 **** -0.24
30717 H 72.34857462455021 75.09532601821626 33.71572085615961 H 0.0 **** 0.06
30718 H 72.72681849941416 73.56873942931779 34.54784102204684 H 0.0 **** 0.06
30719 H 71.04879092498479 73.93474253612057 34.076695051881615 H 0.0 **** 0.06
30720 H 71.82093238450283 74.84570623600253 35.396967334279736 H 0.0 **** 0.06
30721 C 113.80203248080647 115.38197932500127 6.236061772148446 C 0.0 **** -0.24
30722 H 113.56283259543784 116.44445058784953 6.295918870927892 H 0.0 **** 0.06
30723 H 114.21183422173863 115.15765657387372 5.2513920939141485 H 0.0 **** 0.06
30724 H 112.89568694347673 114.79724194408519 6.3948809930923005 H 0.0 **** 0.06
30725 H 114.53600897522261 115.13136792946146 7.0022530114318045 H 0.0 **** 0.06
30726 C 53.58045621684323 56.198683430945096 39.984621674010796 C 0.0 **** -0.24
30727 H 54.553400178336744 56.553317234458746 39.6458349950763 H 0.0 **** 0.06
30728 H 53.04815923232485 57.01274330074659 40.47889602094829 H 0.0 **** 0.06
30729 H 53.71724317481113 55.375674828741126 40.68572629849427 H 0.0 **** 0.06
30730 H 53.00136153758689 55.85315964832128 39.12849423089272 H 0.0 **** 0.06
30731 C 96.50910410353498 24.592399770148063 87.89744494627865 C 0.0 **** -0.24
30732 H 97.21703765516514 23.77295046695473 88.02956078525696 H 0.0 **** 0.06
30733 H 95.5427612411068 24.307947242235905 88.31412923951557 H 0.0 **** 0.06
30734 H 96.39876530361471 24.808692095185755 86.83445831480145 H 0.0 **** 0.06
30735 H 96.88053933789828 25.478447589429557 88.41221545711666 H 0.0 **** 0.06
30736 C 98.23091922332102 45.9871008572687 22.86169857472379 C 0.0 **** -0.24
30737 H 98.51732864920105 45.350755530498304 23.698484549356237 H 0.0 **** 0.06
30738 H 99.0454823237846 46.02538536548079 22.13743695949404 H 0.0 **** 0.06
30739 H 98.0199588012077 46.992387837558454 23.225595962729187 H 0.0 **** 0.06
30740 H 97.33907424240574 45.5787108174369 22.384741817843008 H 0.0 **** 0.06
30741 C 111.74493743297802 36.07620644331473 18.848476429370834 C 0.0 **** -0.24
30742 H 112.79886060511734 36.09159159379743 18.56891810326084 H 0.0 **** 0.06
30743 H 111.3348049266632 37.083767831674606 18.772305621656358 H 0.0 **** 0.06
30744 H 111.64688320201462 35.72047604442457 19.87432282573758 H 0.0 **** 0.06
30745 H 111.20127205375643 35.409666011051115 18.178863579324684 H 0.0 **** 0.06
30746 C 115.9041964867568 57.099890165477674 26.217025229219047 C 0.0 **** -0.24
30747 H 116.49495283770455 57.6025072773577 26.984097348140523 H 0.0 **** 0.06
30748 H 116.4567439951865 56.238998710361244 25.840629548633075 H 0.0 **** 0.06
30749 H 115.70799397678029 57.7924782985332 25.39854382674548 H 0.0 **** 0.06
30750 H 114.95977527845668 56.76708673789507 26.646960086703203 H 0.0 **** 0.06
30751 C 45.65627281226103 69.04138964020389 54.20733792981791 C 0.0 **** -0.24
30752 H 44.826060421393585 68.72049259981043 54.83638484356734 H 0.0 **** 0.06
30753 H 46.52756086619358 69.24438473597893 54.831142186544305 H 0.0 **** 0.06
30754 H 45.37570394848479 69.94689869209436 53.66944944943382 H 0.0 **** 0.06
30755 H 45.89616817806435 68.25468822679993 53.49250954802224 H 0.0 **** 0.06
30756 C 113.37969765481517 68.49435960047258 112.85243054313935 C 0.0 **** -0.24
30757 H 114.02013391230491 67.62596675379966 113.01029085986465 H 0.0 **** 0.06
30758 H 113.05077939952935 68.88326851672383 113.81519535911488 H 0.0 **** 0.06
30759 H 112.51107661680743 68.20085252945533 112.26257066734165 H 0.0 **** 0.06
30760 H 113.93746173141773 69.26409629420084 112.31994095956911 H 0.0 **** 0.06
30761 C 41.72546735879058 26.05988543592548 93.54051474223441 C 0.0 **** -0.24
30762 H 41.85147643034017 26.397211402704443 94.56833201436743 H 0.0 **** 0.06
30763 H 41.07298336267701 26.753027989585007 93.00805377663133 H 0.0 **** 0.06
30764 H 41.27840821202716 25.065546965702197 93.53709314123313 H 0.0 **** 0.06
30765 H 42.69639764116869 26.023278470703303 93.04716817731403 H 0.0 **** 0.06
30766 C 62.64031148160352 53.56961252748846 72.28560861849905 C 0.0 **** -0.24
30767 H 62.174475947878335 52.818225435158524 72.92295642761724 H 0.0 **** 0.06
30768 H 62.386424696550506 54.564408655282875 72.65195644394464 H 0.0 **** 0.06
30769 H 62.277434088574836 53.45414751542256 71.26383592578611 H 0.0 **** 0.06
30770 H 63.72288714952387 53.439936808957896 72.30365696346064 H 0.0 **** 0.06
30771 C 110.1055416320977 16.978384350829458 46.21745070119093 C 0.0 **** -0.24
30772 H 110.9700122202425 16.315347218228016 46.26685706862946 H 0.0 **** 0.06
30773 H 110.39341760194344 17.97441589828105 46.55277456894149 H 0.0 **** 0.06
30774 H 109.3145979900114 16.59255883971024 46.860937615096645 H 0.0 **** 0.06
30775 H 109.74576592404662 17.02988045537828 45.1899887183163 H 0.0 **** 0.06
30776 C 68.72024490798461 96.45381086115935 110.19839398035305 C 0.0 **** -0.24
30777 H 68.2375677006359 96.93348535031146 109.34763750464455 H 0.0 **** 0.06
30778 H 68.62600282420846 97.09411345819629 111.07723511836919 H 0.0 **** 0.06
30779 H 69.77547135543432 96.29526163637593 109.97627726578595 H 0.0 **** 0.06
30780 H 68.24262853124554 95.49430254739937 110.39462573080968 H 0.0 **** 0.06
30781 C 66.29139611784376 9.158997303867892 24.685216232069138 C 0.0 **** -0.24
30782 H 66.26160931867639 8.105025714331902 24.96344859738798 H 0.0 **** 0.06
30783 H 65.89281248405558 9.279781879826771 23.678020265144454 H 0.0 **** 0.06
30784 H 67.32144017966061 9.51252851211072 24.713753838598336 H 0.0 **** 0.06
30785 H 65.68921108556543 9.736579222558845 25.386303850184447 H 0.0 **** 0.06
30786 C 0.8412932667950663 65.07449150103938 38.04656207500324 C 0.0 **** -0.24
30787 H 1.8808054835924732 64.98425129000464 37.73281606898249 H 0.0 **** 0.06
30788 H 0.6534929088678947 66.09127992992592 38.39166767850939 H 0.0 **** 0.06
30789 H 0.6438214291302025 64.3736321730957 38.85690494004987 H 0.0 **** 0.06
30790 H 0.18698350373291817 64.84965182393682 37.20373085766657 H 0.0 **** 0.06
30791 C 16.386720294413454 106.85513476240993 58.0987040246477 C 0.0 **** -0.24
30792 H 15.428775939875873 106.75204533364243 58.60858709623085 H 0.0 **** 0.06
30793 H 16.449463230016065 107.84438061636791 57.643698967274304 H 0.0 **** 0.06
30794 H 16.470285656219037 106.09317900348219 57.325220555512146 H 0.0 **** 0.06
30795 H 17.196248270467493 106.73393663472271 58.81804538197946 H 0.0 **** 0.06
30796 C 38.391396320471074 68.44694975654465 22.662510261936927 C 0.0 **** -0.24
30797 H 39.28701032936118 68.34514176469253 22.049120279904443 H 0.0 **** 0.06
30798 H 38.25706582962971 67.5450340443773 23.259732938525662 H 0.0 **** 0.06
30799 H 37.52403018747492 68.58989236154355 22.01822775934058 H 0.0 **** 0.06
30800 H 38.500283587195156 69.30786885372896 23.32262045281734 H 0.0 **** 0.06
30801 C 78.64841589208076 36.750418877394935 79.38348356569321 C 0.0 **** -0.24
30802 H 78.79962729761039 36.78489402567651 80.46247528902302 H 0.0 **** 0.06
30803 H 78.62613824357393 37.76580375690472 78.98708624334401 H 0.0 **** 0.06
30804 H 77.702927616135 36.25310495642029 79.16486656550063 H 0.0 **** 0.06
30805 H 79.46518574513541 36.19705694927015 78.920641145314 H 0.0 **** 0.06
30806 C 86.0260190089868 2.520106137065966 73.57284237262081 C 0.0 **** -0.24
30807 H 86.77380447270104 2.238926568786951 72.83214038429232 H 0.0 **** 0.06
30808 H 85.31065254702614 3.2089982877864145 73.12199087999086 H 0.0 **** 0.06
30809 H 86.51571813056074 3.006732851350989 74.41612331300996 H 0.0 **** 0.06
30810 H 85.50376702062698 1.628854048018411 73.91925696590647 H 0.0 **** 0.06
30811 C 42.29853690695711 77.54800345020226 77.39082230150238 C 0.0 **** -0.24
30812 H 43.10313267539334 78.03393638005161 76.83839002108982 H 0.0 **** 0.06
30813 H 41.37608009613024 77.6072656496188 76.8124582069804 H 0.0 **** 0.06
30814 H 42.16073160724517 78.05000182632989 78.34764088014424 H 0.0 **** 0.06
30815 H 42.554774928093764 76.50298179194067 77.56106414497192 H 0.0 **** 0.06
30816 C 87.66968740495054 6.983448560890281 71.59660741650981 C 0.0 **** -0.24
30817 H 88.09104153332116 6.66492762990373 72.55104901996839 H 0.0 **** 0.06
30818 H 88.46302646734107 7.382755254950496 70.96491695685444 H 0.0 **** 0.06
30819 H 86.92008227698015 7.755834103981314 71.771508344229 H 0.0 **** 0.06
30820 H 87.20415782940657 6.1312188889656625 71.10240775438575 H 0.0 **** 0.06
30821 C 35.50893275822972 110.02171393541312 45.22984774784362 C 0.0 **** -0.24
30822 H 34.67998663379319 110.68707706927901 44.987800652080665 H 0.0 **** 0.06
30823 H 35.91455643496647 110.28686695262968 46.20689479968519 H 0.0 **** 0.06
30824 H 36.28787738432197 110.12185531262934 44.47400217683233 H 0.0 **** 0.06
30825 H 35.153783415995406 108.99191243007525 45.25090242621141 H 0.0 **** 0.06
30826 C 55.20437857794434 100.1247682968663 32.04903003536208 C 0.0 **** -0.24
30827 H 56.221665158812584 99.80553957102791 32.275298857677626 H 0.0 **** 0.06
30828 H 54.695348730397654 100.39698226815793 32.97452331784626 H 0.0 **** 0.06
30829 H 54.666877913651206 99.30911095030092 31.564904317963396 H 0.0 **** 0.06
30830 H 55.23434857235304 100.98716842878065 31.382576432119038 H 0.0 **** 0.06
30831 C 57.69752886228885 0.5534382818767867 76.44742001835124 C 0.0 **** -0.24
30832 H 58.26995606265092 -0.30085054796052724 76.0845380677439 H 0.0 **** 0.06
30833 H 56.63807997678805 0.3925698005181264 76.24848301182428 H 0.0 **** 0.06
30834 H 58.030575659058215 1.4564752380463517 75.93563133769136 H 0.0 **** 0.06
30835 H 57.85379205830641 0.6661038245560231 77.52034445800328 H 0.0 **** 0.06
30836 C 95.77949668252404 24.656804889356238 94.448140397765 C 0.0 **** -0.24
30837 H 94.78861185199119 24.422058327815193 94.83828001271627 H 0.0 **** 0.06
30838 H 96.03713984368298 25.684271802019452 94.70844867109895 H 0.0 **** 0.06
30839 H 95.77863214963573 24.5449157103223 93.36423930624665 H 0.0 **** 0.06
30840 H 96.51080198915494 23.97696950158212 94.8838660871553 H 0.0 **** 0.06
30841 C 22.845829520184015 74.27740033609855 38.11538051464592 C 0.0 **** -0.24
30842 H 22.027049217786573 74.80796998672434 37.628890799048484 H 0.0 **** 0.06
30843 H 22.440015822797346 73.56267574146705 38.831645532991004 H 0.0 **** 0.06
30844 H 23.4820689965535 74.9925359228946 38.636619389217365 H 0.0 **** 0.06
30845 H 23.432517492680457 73.74803542658111 37.365148868605885 H 0.0 **** 0.06
30846 C 31.147190696121356 104.7068368947472 53.71530021537143 C 0.0 **** -0.24
30847 H 30.98710042835541 103.87685600932988 54.403854075739275 H 0.0 **** 0.06
30848 H 30.30443740679621 105.39650480702187 53.7764778615126 H 0.0 **** 0.06
30849 H 31.230316869491986 104.32371758118563 52.69887357674338 H 0.0 **** 0.06
30850 H 32.06516897844842 105.22917019412608 53.983325044589265 H 0.0 **** 0.06
30851 C 71.53070232922543 26.149893933777264 38.89524928688817 C 0.0 **** -0.24
30852 H 71.29836442358393 27.14500979194281 38.515952463067066 H 0.0 **** 0.06
30853 H 70.80064915020819 25.436238148461143 38.513931432190304 H 0.0 **** 0.06
30854 H 71.49542115798134 26.158890983055016 39.98433505401147 H 0.0 **** 0.06
30855 H 72.52960089631662 25.86014125823135 38.566783639537434 H 0.0 **** 0.06
30856 C 4.16457646270247 98.00524587344029 14.981361309192039 C 0.0 **** -0.24
30857 H 4.135646221186164 96.91872126490921 14.89639132521745 H 0.0 **** 0.06
30858 H 3.590211507535571 98.31752739767671 15.853110504714351 H 0.0 **** 0.06
30859 H 3.735265030935082 98.45102747408215 14.083631360198325 H 0.0 **** 0.06
30860 H 5.198677590237068 98.33355122981597 15.089915684465879 H 0.0 **** 0.06
30861 C 50.16503873543519 87.3237346888227 72.76585631395403 C 0.0 **** -0.24
30862 H 50.88816375317447 87.19869471473106 71.95933984200128 H 0.0 **** 0.06
30863 H 49.19800195603602 87.60367241426113 72.34662325426403 H 0.0 **** 0.06
30864 H 50.508558353095 88.1049661575725 73.44315178804791 H 0.0 **** 0.06
30865 H 50.06634358747482 86.38566128890463 73.3131324623265 H 0.0 **** 0.06
30866 C 95.35416639917872 8.238529971633625 6.500153662347504 C 0.0 **** -0.24
30867 H 94.30107045919874 7.9971394713809865 6.352711558929567 H 0.0 **** 0.06
30868 H 95.6558688427117 9.001112387083236 5.781598658597826 H 0.0 **** 0.06
30869 H 95.95573332516011 7.341173850776041 6.352923162297165 H 0.0 **** 0.06
30870 H 95.50251990718607 8.613115641581672 7.512799379275627 H 0.0 **** 0.06
30871 C 102.72397331321918 92.65704307536241 55.520044641871294 C 0.0 **** -0.24
30872 H 102.78439356673266 91.9329657767729 54.70719161398242 H 0.0 **** 0.06
30873 H 103.70989695101105 92.78184345779617 55.96877289914221 H 0.0 **** 0.06
30874 H 102.02442153252366 92.29871036838207 56.27487607980515 H 0.0 **** 0.06
30875 H 102.37894072567917 93.61370851981681 55.12922469334728 H 0.0 **** 0.06
30876 C 74.66000042425644 24.700220806234853 48.1074607007526 C 0.0 **** -0.24
30877 H 74.51704875887985 24.626498233333052 49.185652878830524 H 0.0 **** 0.06
30878 H 73.70082665366772 24.891173886152558 47.62723148874005 H 0.0 **** 0.06
30879 H 75.07588794893294 23.76497347179344 47.732537307364055 H 0.0 **** 0.06
30880 H 75.34688161549772 25.51775755620278 47.88763925517418 H 0.0 **** 0.06
30881 C 96.78736613980635 12.22819601451286 97.17902498729313 C 0.0 **** -0.24
30882 H 96.03097676582735 11.443596531344355 97.18529400859241 H 0.0 **** 0.06
30883 H 97.7792529158707 11.77539848594273 97.15405191115495 H 0.0 **** 0.06
30884 H 96.6877131545478 12.835706386868381 98.07810782069818 H 0.0 **** 0.06
30885 H 96.65194817488663 12.856804408176032 96.2990755575065 H 0.0 **** 0.06
30886 C 3.5822671123476653 68.49809945477676 55.62779312383748 C 0.0 **** -0.24
30887 H 4.135184048106083 68.06376656574889 54.79589513614769 H 0.0 **** 0.06
30888 H 2.794678996147695 67.81223001372763 55.939330608161185 H 0.0 **** 0.06
30889 H 3.1378081650263425 69.44314806975211 55.31510808681898 H 0.0 **** 0.06
30890 H 4.261375840177664 68.67495347651877 56.462601854666616 H 0.0 **** 0.06
30891 C 4.071084107386355 47.61116519671792 58.75314960882041 C 0.0 **** -0.24
30892 H 3.048798785182143 47.68064089213725 59.12465518208454 H 0.0 **** 0.06
30893 H 4.767188310669482 47.843311904927326 59.55916722588829 H 0.0 **** 0.06
30894 H 4.20972641804191 48.319892142728115 57.93659710619072 H 0.0 **** 0.06
30895 H 4.258027425679273 46.59929481762346 58.391602699221096 H 0.0 **** 0.06
30896 C 28.546565621351213 37.92250324394148 6.74723736040292 C 0.0 **** -0.24
30897 H 28.004069342121504 38.08072374796751 7.679436709405593 H 0.0 **** 0.06
30898 H 28.966765673508732 36.9161072048358 6.738261772180124 H 0.0 **** 0.06
30899 H 29.351469172005125 38.653219329864484 6.667051088627076 H 0.0 **** 0.06
30900 H 27.864198694284305 38.039525595448765 5.905523226560987 H 0.0 **** 0.06
30901 C 81.8461419573253 14.986506090951252 81.94946632787617 C 0.0 **** -0.24
30902 H 82.84468054382805 14.707289767790968 81.61603959990964 H 0.0 **** 0.06
30903 H 81.90774863727626 15.875215424839809 82.57776634032825 H 0.0 **** 0.06
30904 H 81.41224159213456 14.165867760596711 82.52233530061423 H 0.0 **** 0.06
30905 H 81.21892257636492 15.196090046856426 81.08334050927573 H 0.0 **** 0.06
30906 C 67.38752785716109 93.0537398549676 1.7009078863933667 C 0.0 **** -0.24
30907 H 66.74755449077686 93.28359874388724 2.5532696536054686 H 0.0 **** 0.06
30908 H 66.91043752167965 92.2918902937844 1.084492761598284 H 0.0 **** 0.06
30909 H 68.348984236262 92.68345314949588 2.058916309055064 H 0.0 **** 0.06
30910 H 67.54366418191506 93.95601650243225 1.1102270818180386 H 0.0 **** 0.06
30911 C 63.61837155625375 38.236629019429074 2.2063342980692653 C 0.0 **** -0.24
30912 H 63.91623838911984 37.18946622806439 2.270987753265402 H 0.0 **** 0.06
30913 H 62.717926844618916 38.394885659478454 2.7994284584662523 H 0.0 **** 0.06
30914 H 63.41963437255363 38.4941507419329 1.166325831646688 H 0.0 **** 0.06
30915 H 64.42211347042166 38.8668679487787 2.58993631763245 H 0.0 **** 0.06
30916 C 3.212122047744842 73.8513780675728 41.482723820478554 C 0.0 **** -0.24
30917 H 4.042586829969352 73.4425322564415 40.906333365702615 H 0.0 **** 0.06
30918 H 3.3290668535159966 74.93155466333081 41.56945894355669 H 0.0 **** 0.06
30919 H 3.2057994635433573 73.4046353725887 42.47643679999248 H 0.0 **** 0.06
30920 H 2.27341594122818 73.62558591080722 40.97669584883128 H 0.0 **** 0.06
30921 C 109.19710561575721 87.39594353724718 3.749809583474928 C 0.0 **** -0.24
30922 H 109.49693082317259 88.36630510041057 3.353693624396101 H 0.0 **** 0.06
30923 H 108.10864554897887 87.33476808141265 3.7748866331770614 H 0.0 **** 0.06
30924 H 109.59054484519856 87.27831021997265 4.7592631498077935 H 0.0 **** 0.06
30925 H 109.5911381219928 86.6056696761006 3.111286969464345 H 0.0 **** 0.06
30926 C 30.450300061999002 53.36814579143271 62.766891867370674 C 0.0 **** -0.24
30927 H 29.965103051737145 53.52797904897969 61.803893550654436 H 0.0 **** 0.06
30928 H 31.05485638289491 52.46146266830334 62.722597352050585 H 0.0 **** 0.06
30929 H 29.691551000719812 53.26184787652633 63.54230477585139 H 0.0 **** 0.06
30930 H 31.08891606616629 54.22067701976806 62.9977612002302 H 0.0 **** 0.06
30931 C 7.75949498869133 0.4837351466972777 103.72630003520874 C 0.0 **** -0.24
30932 H 7.0326975827884155 -0.19534997273296195 103.28120178603962 H 0.0 **** 0.06
30933 H 8.757376119574758 0.05063001888626495 103.64663296867076 H 0.0 **** 0.06
30934 H 7.5142798216851645 0.6400175539482102 104.77674940537042 H 0.0 **** 0.06
30935 H 7.734751363552192 1.4381674981309676 103.2013627652509 H 0.0 **** 0.06
30936 C 103.67183671359189 100.89711213863055 19.59749903786124 C 0.0 **** -0.24
30937 H 103.87435105683016 101.90679504211815 19.954149994415303 H 0.0 **** 0.06
30938 H 104.6130154551838 100.39949625788753 19.3618836433549 H 0.0 **** 0.06
30939 H 103.05273768464019 100.94642743196036 18.7011637172954 H 0.0 **** 0.06
30940 H 103.14754244308709 100.3375317879725 20.371166806630683 H 0.0 **** 0.06
30941 C 105.94645195180972 102.1651150864418 37.00558098954615 C 0.0 **** -0.24
30942 H 105.16903154110376 102.44011585942087 36.29319233153463 H 0.0 **** 0.06
30943 H 106.38653550236673 103.0676145688542 37.4305100934619 H 0.0 **** 0.06
30944 H 106.71928791833214 101.5892877236559 36.49524870675691 H 0.0 **** 0.06
30945 H 105.51159172451514 101.56218898805508 37.8032264621036 H 0.0 **** 0.06
30946 C 23.82159502354503 108.2778731621012 54.335604747947855 C 0.0 **** -0.24
30947 H 24.777918553041104 108.79314657096526 54.43264728203974 H 0.0 **** 0.06
30948 H 23.900492262498915 107.50723077050979 53.5683713274226 H 0.0 **** 0.06
30949 H 23.04969110831803 108.99400456627569 54.05412881520704 H 0.0 **** 0.06
30950 H 23.560125685723534 107.81630409869133 55.2882391930284 H 0.0 **** 0.06
30951 C 97.83369857865543 76.59820350501326 40.467181438222845 C 0.0 **** -0.24
30952 H 98.15141841413799 75.78554446573344 39.81510102985321 H 0.0 **** 0.06
30953 H 98.6142450122563 77.35748490245584 40.50902095323348 H 0.0 **** 0.06
30954 H 97.65106290033648 76.20964907470824 41.469422556159564 H 0.0 **** 0.06
30955 H 96.9171518433975 77.03949393742244 40.076046714335014 H 0.0 **** 0.06
30956 C 67.52586695509046 44.053719294256005 102.8216534948086 C 0.0 **** -0.24
30957 H 66.61557456602094 44.42475918242924 103.29281454253322 H 0.0 **** 0.06
30958 H 68.1355210926614 44.89729195535271 102.49621899362677 H 0.0 **** 0.06
30959 H 67.26329536496178 43.44009318373428 101.95988106987187 H 0.0 **** 0.06
30960 H 68.08686445927327 43.45356261667079 103.53834543869215 H 0.0 **** 0.06
30961 C 15.766218481647062 89.99394230789 46.32383443830955 C 0.0 **** -0.24
30962 H 15.840302515526528 90.0136645321037 45.23669317606118 H 0.0 **** 0.06
30963 H 15.054052559710147 89.22628406234384 46.626206825899885 H 0.0 **** 0.06
30964 H 15.426281282981513 90.96647017604789 46.681994861229725 H 0.0 **** 0.06
30965 H 16.74434786196558 89.77158230797805 46.75035934970637 H 0.0 **** 0.06
30966 C 102.08191080651977 73.7213539382725 54.09643884292433 C 0.0 **** -0.24
30967 H 102.74529073388308 73.8963012602187 53.24869470018183 H 0.0 **** 0.06
30968 H 102.62833538791887 73.88736047106823 55.02502679230122 H 0.0 **** 0.06
30969 H 101.71914871577039 72.69417601043085 54.0670672072128 H 0.0 **** 0.06
30970 H 101.23639300943891 74.40745417197476 54.04367809826846 H 0.0 **** 0.06
30971 C 74.06778678316454 95.267060279313 98.92091688669902 C 0.0 **** -0.24
30972 H 72.9815998719741 95.32255098986366 98.8385796671505 H 0.0 **** 0.06
30973 H 74.48962490538284 94.9625659750958 97.96324400185873 H 0.0 **** 0.06
30974 H 74.33577890969173 94.53729487402819 99.6859863729684 H 0.0 **** 0.06
30975 H 74.4612690096737 96.2446746184525 99.197702800994 H 0.0 **** 0.06
30976 C 100.3521447518348 35.98220483449484 30.946618647480584 C 0.0 **** -0.24
30977 H 100.09987533797997 35.255999069678495 30.174304042561154 H 0.0 **** 0.06
30978 H 99.46127257163829 36.54759923412445 31.219487603756093 H 0.0 **** 0.06
30979 H 101.11391745801919 36.66366498500119 30.567985634596248 H 0.0 **** 0.06
30980 H 100.73517251592187 35.459887098760845 31.82401681259301 H 0.0 **** 0.06
30981 C 31.986609257566094 103.18703760978377 40.45838972686209 C 0.0 **** -0.24
30982 H 31.26237125832234 104.00129156128042 40.45387910970754 H 0.0 **** 0.06
30983 H 32.993349962505505 103.59750698858994 40.535743395993165 H 0.0 **** 0.06
30984 H 31.897073671940078 102.61502008127326 39.53525656208373 H 0.0 **** 0.06
30985 H 31.792760568015034 102.53415940745481 41.310466831760536 H 0.0 **** 0.06
30986 C 6.503122037726346 52.62170229785515 5.15152984576136 C 0.0 **** -0.24
30987 H 6.175644284753359 53.34906534078727 5.894428819120378 H 0.0 **** 0.06
30988 H 5.633299157686038 52.21485791964774 4.634954185836932 H 0.0 **** 0.06
30989 H 7.04307018205056 51.815514860786976 5.647025869065516 H 0.0 **** 0.06
30990 H 7.159590799090584 53.109554423343376 4.430383068486378 H 0.0 **** 0.06
30991 C 113.48518633133529 46.43490508829552 31.870452368913675 C 0.0 **** -0.24
30992 H 112.8229499817412 45.707496672404716 32.34034766517672 H 0.0 **** 0.06
30993 H 112.99865489702336 46.853272349335555 30.988989047132407 H 0.0 **** 0.06
30994 H 114.41292080047248 45.94410132176648 31.575993573708587 H 0.0 **** 0.06
30995 H 113.70572352967832 47.23465977477122 32.577800491978735 H 0.0 **** 0.06
30996 C 83.18915266743161 11.64669746533842 87.75288430003252 C 0.0 **** -0.24
30997 H 83.87111783666262 10.798290209727735 87.70703534675056 H 0.0 **** 0.06
30998 H 83.6370026128211 12.441337606311105 88.34930194404507 H 0.0 **** 0.06
30999 H 82.2504379299101 11.333762228839884 88.20993432804266 H 0.0 **** 0.06
31000 H 82.99727557957851 12.012830268100807 86.74422999026336 H 0.0 **** 0.06
31001 C 48.83036818601188 23.749815849496258 24.871072969308045 C 0.0 **** -0.24
31002 H 49.47927834916214 24.08207713290315 24.061092992768096 H 0.0 **** 0.06
31003 H 49.271040742584404 24.03157070410279 25.828853014077197 H 0.0 **** 0.06
31004 H 48.720163938204095 22.66624133408652 24.826802717623423 H 0.0 **** 0.06
31005 H 47.8518504619683 24.219240383110616 24.76960263892596 H 0.0 **** 0.06
31006 C 105.47487874726157 40.07184562834436 77.25322479176418 C 0.0 **** -0.24
31007 H 105.54269046223584 39.0337600127923 76.92864144313745 H 0.0 **** 0.06
31008 H 105.86900770921942 40.723223630403425 76.47236200842036 H 0.0 **** 0.06
31009 H 106.05544548086841 40.20591367211779 78.16551012858037 H 0.0 **** 0.06
31010 H 104.43200165068183 40.32425820646063 77.44548455201078 H 0.0 **** 0.06
31011 C 17.1948591087492 64.6938014282804 93.01445856588533 C 0.0 **** -0.24
31012 H 17.997087460042962 65.17723097856125 93.57085772607881 H 0.0 **** 0.06
31013 H 16.44766878806277 64.31310355297245 93.71245458196339 H 0.0 **** 0.06
31014 H 17.602137550190633 63.86788769853531 92.43210190365743 H 0.0 **** 0.06
31015 H 16.73042870206767 65.41760987772581 92.34445460875715 H 0.0 **** 0.06
31016 C 100.09884033655749 89.76384440779076 82.5343939490856 C 0.0 **** -0.24
31017 H 101.16673413627487 89.54641509476609 82.55339070069124 H 0.0 **** 0.06
31018 H 99.80853302036584 90.24195461135132 83.47129255310108 H 0.0 **** 0.06
31019 H 99.54084574607475 88.83532356687611 82.41183513303656 H 0.0 **** 0.06
31020 H 99.87942123591853 90.4323027543882 81.70231750579 H 0.0 **** 0.06
31021 C 55.55228524048142 39.94300486732795 110.12038684222262 C 0.0 **** -0.24
31022 H 55.78919380253296 40.85062385600772 109.56446984621158 H 0.0 **** 0.06
31023 H 55.9200266059118 40.03690771227591 111.14281394097145 H 0.0 **** 0.06
31024 H 56.02942444320501 39.08866470845223 109.63939861563142 H 0.0 **** 0.06
31025 H 54.473099179193404 39.7972297329724 110.13436879263753 H 0.0 **** 0.06
31026 C 97.73937797711736 82.6720765333383 32.51976819505924 C 0.0 **** -0.24
31027 H 97.9127814108454 82.3399634665568 31.495690184800935 H 0.0 **** 0.06
31028 H 97.3015113719208 81.85713294134766 33.09590820817721 H 0.0 **** 0.06
31029 H 97.05741567552988 83.52249561967676 32.51473204936329 H 0.0 **** 0.06
31030 H 98.68657750775739 82.96866167519745 32.96908188956786 H 0.0 **** 0.06
31031 C 76.17239480461673 62.12780855234996 54.041118008535875 C 0.0 **** -0.24
31032 H 75.2763535754642 61.57031361811566 53.767942094141006 H 0.0 **** 0.06
31033 H 75.92474877989557 62.85532519767308 54.81489291218503 H 0.0 **** 0.06
31034 H 76.55854731040289 62.64684398455225 53.163757748327896 H 0.0 **** 0.06
31035 H 76.92837095689379 61.439041917731984 54.41857681400188 H 0.0 **** 0.06
31036 C 77.00972939427383 104.08287341747747 5.027241602432213 C 0.0 **** -0.24
31037 H 76.05225887330117 103.75548106226285 5.4321638044542055 H 0.0 **** 0.06
31038 H 77.00969463694061 105.16898332462206 4.926832866250649 H 0.0 **** 0.06
31039 H 77.16496347189262 103.62789230583644 4.049135725787011 H 0.0 **** 0.06
31040 H 77.81150765757928 103.77995304414358 5.701135848166587 H 0.0 **** 0.06
31041 C 11.934025316366416 29.02858904832852 22.91695657591174 C 0.0 **** -0.24
31042 H 12.696610435765535 29.748905981571966 23.21576771227336 H 0.0 **** 0.06
31043 H 11.173670728514722 28.962375213118385 23.694396037563493 H 0.0 **** 0.06
31044 H 12.394182672107519 28.051889738575788 22.77316811524524 H 0.0 **** 0.06
31045 H 11.47327637495249 29.355127767591227 21.98361604738227 H 0.0 **** 0.06
31046 C 102.1864595424014 80.68683286975673 30.491691314266248 C 0.0 **** -0.24
31047 H 103.21404466087866 80.36501021836015 30.321439790636404 H 0.0 **** 0.06
31048 H 101.93418984828338 80.5530830369789 31.543697277141028 H 0.0 **** 0.06
31049 H 101.5122801436207 80.09065839958173 29.87676148717115 H 0.0 **** 0.06
31050 H 102.08768650312585 81.73912078531204 30.225218835441808 H 0.0 **** 0.06
31051 C 77.77088776658225 58.52289434392543 44.12156512467263 C 0.0 **** -0.24
31052 H 76.89844761260447 57.931739472396316 44.39758065990924 H 0.0 **** 0.06
31053 H 78.07896782113608 58.26434052705417 43.10799015730373 H 0.0 **** 0.06
31054 H 78.58645474226658 58.31274379060011 44.81401284595137 H 0.0 **** 0.06
31055 H 77.52033290801364 59.58350215927061 44.16679753071176 H 0.0 **** 0.06
31056 C 13.165765236858647 25.798174575453203 55.87697021120872 C 0.0 **** -0.24
31057 H 13.25730371723364 25.489456831633447 54.83605495839784 H 0.0 **** 0.06
31058 H 13.458928309089714 26.843782114660826 55.97279223008846 H 0.0 **** 0.06
31059 H 13.813344928288615 25.179509956270238 56.49797920207148 H 0.0 **** 0.06
31060 H 12.131059746565938 25.67959847543611 56.201039496442306 H 0.0 **** 0.06
31061 C 51.6044747978834 88.61192431633691 3.7276733524712 C 0.0 **** -0.24
31062 H 50.65965806793431 88.23392536028973 4.120806669083535 H 0.0 **** 0.06
31063 H 51.759998662576784 88.22372501498569 2.721409397452632 H 0.0 **** 0.06
31064 H 52.42148990372942 88.28978689153865 4.372511544294213 H 0.0 **** 0.06
31065 H 51.57323367173097 89.70146585322527 3.696370959431931 H 0.0 **** 0.06
31066 C 22.475186208131447 63.939448231093564 89.26556423417485 C 0.0 **** -0.24
31067 H 22.936784818528878 63.162626997189776 88.65716883142784 H 0.0 **** 0.06
31068 H 22.09499467995684 64.73101097127159 88.61891560402897 H 0.0 **** 0.06
31069 H 23.215674065757582 64.35346352762927 89.95004478842681 H 0.0 **** 0.06
31070 H 21.650952434148877 63.511093251250855 89.83766681908021 H 0.0 **** 0.06
31071 C 97.14703710262953 46.9010964781069 110.60021538338316 C 0.0 **** -0.24
31072 H 97.54305270133914 47.78482005398078 110.09999659509984 H 0.0 **** 0.06
31073 H 97.82286453027909 46.06021359746724 110.44050660712648 H 0.0 **** 0.06
31074 H 96.16600806076737 46.66235634048555 110.19102514802893 H 0.0 **** 0.06
31075 H 97.05772336853241 47.098124412459306 111.66811825985107 H 0.0 **** 0.06
31076 C 16.547361095566004 106.94684081634433 69.17440947603643 C 0.0 **** -0.24
31077 H 16.700367740521372 108.0241832516989 69.1301411996306 H 0.0 **** 0.06
31078 H 17.45684468198833 106.43661197735682 68.85583806801648 H 0.0 **** 0.06
31079 H 15.72454870447315 106.66954120101144 68.51459335539312 H 0.0 **** 0.06
31080 H 16.306863718388158 106.65550818647733 70.1972143971295 H 0.0 **** 0.06
31081 C 59.763325555758115 79.21793999140806 69.54269944228518 C 0.0 **** -0.24
31082 H 60.30115437317153 78.37545864002749 69.10865583670775 H 0.0 **** 0.06
31083 H 60.47190021791906 79.89333597984 70.02199658726094 H 0.0 **** 0.06
31084 H 59.05109388145925 78.85213065453715 70.28298532139074 H 0.0 **** 0.06
31085 H 59.227609914931094 79.75018265527802 68.75672231212258 H 0.0 **** 0.06
31086 C 66.53753311769282 8.302868911881049 7.274817796640065 C 0.0 **** -0.24
31087 H 65.66483828370417 7.674676687285185 7.458589169122931 H 0.0 **** 0.06
31088 H 66.27241988533194 9.097077985999903 6.575680060630248 H 0.0 **** 0.06
31089 H 67.33771033036493 7.697407023030635 6.850189923147411 H 0.0 **** 0.06
31090 H 66.87290277551045 8.74173415341835 8.214069626103665 H 0.0 **** 0.06
31091 C 7.5307349783541895 85.7001646686029 43.81770865151037 C 0.0 **** -0.24
31092 H 7.480016228446573 85.19402629263459 44.782412326623074 H 0.0 **** 0.06
31093 H 7.930338070026039 86.70499629167563 43.954928686454835 H 0.0 **** 0.06
31094 H 6.531289509662571 85.76129947621473 43.386909567221124 H 0.0 **** 0.06
31095 H 8.180612135252574 85.13808935029851 43.14727852739068 H 0.0 **** 0.06
31096 C 94.70399570656991 16.17333016916041 95.43819961648529 C 0.0 **** -0.24
31097 H 94.16122900176198 15.985200482898676 96.36439833386635 H 0.0 **** 0.06
31098 H 94.5282417793854 17.20016229438005 95.1161841711818 H 0.0 **** 0.06
31099 H 94.35538549491072 15.485141102100187 94.66713582424 H 0.0 **** 0.06
31100 H 95.77023060210466 16.02094627061895 95.6042442590554 H 0.0 **** 0.06
31101 C 102.39826103371792 51.32646268278948 51.67502288001813 C 0.0 **** -0.24
31102 H 102.96693243706055 52.19551541709372 51.34578334161438 H 0.0 **** 0.06
31103 H 102.14862298773228 51.434481981722186 52.730959090953945 H 0.0 **** 0.06
31104 H 102.99537764726921 50.42577599812881 51.533896067451565 H 0.0 **** 0.06
31105 H 101.48095677179896 51.250053492634095 51.09026981719177 H 0.0 **** 0.06
31106 C 69.9901771703432 81.1829561440718 78.0042546646172 C 0.0 **** -0.24
31107 H 70.49059612624234 80.39490718472183 78.56750353834403 H 0.0 **** 0.06
31108 H 70.73719094484846 81.83804076573688 77.55637176243145 H 0.0 **** 0.06
31109 H 69.35574994777505 81.76176011790642 78.67601775652686 H 0.0 **** 0.06
31110 H 69.37915958723372 80.73655700781649 77.22024584330161 H 0.0 **** 0.06
31111 C 15.669591055407949 41.163979571737116 55.8236759499711 C 0.0 **** -0.24
31112 H 15.71584241070508 40.082132568072495 55.698826328852455 H 0.0 **** 0.06
31113 H 15.819388710339183 41.41441363782542 56.874327675204114 H 0.0 **** 0.06
31114 H 14.693344952532982 41.52450795988909 55.499439330002055 H 0.0 **** 0.06
31115 H 16.44799044871735 41.63255918264315 55.22278577855132 H 0.0 **** 0.06
31116 C 78.20855593929463 2.703966142921013 15.534652401868268 C 0.0 **** -0.24
31117 H 77.53340092220617 3.0696046467503066 14.760389014432473 H 0.0 **** 0.06
31118 H 78.67000051040628 1.7730891669189592 15.203403886060219 H 0.0 **** 0.06
31119 H 77.64589078383875 2.525247073454258 16.450953102119225 H 0.0 **** 0.06
31120 H 78.9827290309563 3.4471093542840006 15.722286813243056 H 0.0 **** 0.06
31121 C 60.21530923922826 75.56421117097125 114.77480171878734 C 0.0 **** -0.24
31122 H 61.127030303260455 76.08580201162249 115.06614902807846 H 0.0 **** 0.06
31123 H 59.49877108559407 76.28201315798105 114.37413727279322 H 0.0 **** 0.06
31124 H 59.78593714531621 75.06882657160202 115.64643887854403 H 0.0 **** 0.06
31125 H 60.45034980894509 74.82055406723623 114.01355499289785 H 0.0 **** 0.06
31126 C 57.10754117363291 78.61388120407258 23.068002502876 C 0.0 **** -0.24
31127 H 56.37058299825948 77.82638413418444 23.224177216069805 H 0.0 **** 0.06
31128 H 58.08538219267993 78.165661955232 22.888146795235386 H 0.0 **** 0.06
31129 H 57.15587065378827 79.24734115187016 23.95390223105214 H 0.0 **** 0.06
31130 H 56.81970736294879 79.2151469120709 22.20612794795099 H 0.0 **** 0.06
31131 C 37.311753420982726 112.09270469992494 99.07333291731143 C 0.0 **** -0.24
31132 H 37.76218191493012 111.29495557944655 99.66467301929862 H 0.0 **** 0.06
31133 H 36.669699407408075 112.69956304991061 99.71196986887782 H 0.0 **** 0.06
31134 H 36.7186323960296 111.65749584649137 98.26882233517128 H 0.0 **** 0.06
31135 H 38.09831961772767 112.7168411057889 98.64878028162485 H 0.0 **** 0.06
31136 C 87.48511402304526 107.69765936460331 21.828094753510868 C 0.0 **** -0.24
31137 H 87.4332338236138 106.8212339278252 21.181856042308794 H 0.0 **** 0.06
31138 H 86.93272565945725 107.50293481252884 22.748350751674366 H 0.0 **** 0.06
31139 H 87.0458193455593 108.553649494522 21.314929389215962 H 0.0 **** 0.06
31140 H 88.52623994071605 107.9128095747872 22.06748717787798 H 0.0 **** 0.06
31141 C 112.12079853147877 92.74336344507367 66.20809850261554 C 0.0 **** -0.24
31142 H 111.0364443417713 92.71917713271608 66.32211447497042 H 0.0 **** 0.06
31143 H 112.41911095544887 93.69937757803552 65.77756483220708 H 0.0 **** 0.06
31144 H 112.43365088981284 91.93428191481496 65.54709993402923 H 0.0 **** 0.06
31145 H 112.59215458597481 92.62012909669141 67.18238964715871 H 0.0 **** 0.06
31146 C 2.1780476178081187 92.3765873821689 59.87345647430263 C 0.0 **** -0.24
31147 H 2.0457274719475294 92.5351329927808 60.94413489165255 H 0.0 **** 0.06
31148 H 3.066915794460016 91.76878662605645 59.70383581046384 H 0.0 **** 0.06
31149 H 2.2948003401306494 93.33909788832625 59.375897579090136 H 0.0 **** 0.06
31150 H 1.3042009124368121 91.86348576955504 59.47187556415797 H 0.0 **** 0.06
31151 C 93.21560482859535 67.02436568127145 110.93544736541347 C 0.0 **** -0.24
31152 H 92.66627124981704 66.10249586997382 111.12685068974275 H 0.0 **** 0.06
31153 H 92.51426706844106 67.85637140577293 110.86493190383825 H 0.0 **** 0.06
31154 H 93.76463685528826 66.93119400573542 109.99823850502091 H 0.0 **** 0.06
31155 H 93.91499258408972 67.20550003636184 111.75062131843907 H 0.0 **** 0.06
31156 C 70.98886192241821 115.72341651106609 115.59817395680406 C 0.0 **** -0.24
31157 H 70.72367453441746 115.95091951987439 114.56611023048936 H 0.0 **** 0.06
31158 H 70.29135807370545 116.2240078135572 116.27102266281216 H 0.0 **** 0.06
31159 H 72.00206545295899 116.07205610140161 115.79913569301956 H 0.0 **** 0.06
31160 H 70.93661653262939 114.64661307061388 115.757423117489 H 0.0 **** 0.06
31161 C 101.33809947840635 28.538460494304232 55.597425967871345 C 0.0 **** -0.24
31162 H 102.17219126659558 28.89681049120958 54.994939730279725 H 0.0 **** 0.06
31163 H 101.71692327329666 27.917990543110932 56.40992406447502 H 0.0 **** 0.06
31164 H 100.66529728616894 27.950566882081176 54.973292288960444 H 0.0 **** 0.06
31165 H 100.79796617292732 29.389711874423327 56.01223155279099 H 0.0 **** 0.06
31166 C 49.54716431275099 47.349540664139965 36.20364948378608 C 0.0 **** -0.24
31167 H 49.34296764777332 48.11406004818306 36.95274183015215 H 0.0 **** 0.06
31168 H 50.5356728648467 46.92400280339305 36.37985956487324 H 0.0 **** 0.06
31169 H 49.51551544450234 47.798102786389904 35.210191892184355 H 0.0 **** 0.06
31170 H 48.79497343857582 46.563324241276064 36.27192984004114 H 0.0 **** 0.06
31171 C 56.92013555206012 41.32730810608754 14.350766167264126 C 0.0 **** -0.24
31172 H 56.288210721711266 40.440951428628495 14.405166467506746 H 0.0 **** 0.06
31173 H 57.14597591600108 41.674536760073494 15.358997264751082 H 0.0 **** 0.06
31174 H 56.39808140261704 42.1120478660971 13.80392845126373 H 0.0 **** 0.06
31175 H 57.84763028381161 41.07967581662945 13.833746467456137 H 0.0 **** 0.06
31176 C 84.51344849123542 17.072812150738827 14.480053976569423 C 0.0 **** -0.24
31177 H 84.64705543476795 18.018433729392484 15.005755019352307 H 0.0 **** 0.06
31178 H 85.17575264070989 17.041957128745167 13.614990553618043 H 0.0 **** 0.06
31179 H 83.47864342958479 16.982233303355287 14.151228100305275 H 0.0 **** 0.06
31180 H 84.75488560588408 16.24766466828379 15.151342589514059 H 0.0 **** 0.06
31181 C 77.10321175903306 8.409521264369587 10.674944861443237 C 0.0 **** -0.24
31182 H 76.72131743675124 9.363740663698337 11.037528098803847 H 0.0 **** 0.06
31183 H 77.52069854621384 7.84532164013055 11.508942537952407 H 0.0 **** 0.06
31184 H 77.87946547888114 8.587768425573898 9.93096525716848 H 0.0 **** 0.06
31185 H 76.28927418802182 7.842033903623957 10.22248011600064 H 0.0 **** 0.06
31186 C 7.133121626914715 92.87593449996173 65.47749223860978 C 0.0 **** -0.24
31187 H 6.473993271371171 92.27049816315916 64.8540932540443 H 0.0 **** 0.06
31188 H 8.163082595081733 92.54321312372727 65.34673110718296 H 0.0 **** 0.06
31189 H 6.844869294696764 92.76788617957462 66.52264182151387 H 0.0 **** 0.06
31190 H 7.048979199161295 93.92306747632608 65.1833880948837 H 0.0 **** 0.06
31191 C 11.214629816235206 47.46222774862445 50.65011162727296 C 0.0 **** -0.24
31192 H 12.16508519919686 46.95967409365028 50.831943949435754 H 0.0 **** 0.06
31193 H 11.354330596475506 48.540632687110836 50.72318705643352 H 0.0 **** 0.06
31194 H 10.485753345556386 47.13817442126353 51.393394966238475 H 0.0 **** 0.06
31195 H 10.855309253947869 47.20797944496224 49.65299674852412 H 0.0 **** 0.06
31196 C 111.33751351064012 0.7033602937250691 10.095280869146407 C 0.0 **** -0.24
31197 H 112.25280164687791 0.114541073439824 10.15178823225644 H 0.0 **** 0.06
31198 H 111.230694704585 1.2971983786477495 11.003865873283033 H 0.0 **** 0.06
31199 H 110.48222437932495 0.03592665238977588 9.99343123385815 H 0.0 **** 0.06
31200 H 111.38485232799103 1.3670288284279764 9.23096162261978 H 0.0 **** 0.06
31201 C 91.954696621989 43.874553003613016 76.60600562551994 C 0.0 **** -0.24
31202 H 91.89655025510157 44.49231847853048 77.50257319942028 H 0.0 **** 0.06
31203 H 92.04807238432268 42.82677135257133 76.89284212048841 H 0.0 **** 0.06
31204 H 92.82287671069166 44.170541986845535 76.0173330535826 H 0.0 **** 0.06
31205 H 91.04993525109292 44.01018256793401 76.01364169625336 H 0.0 **** 0.06
31206 C 42.00129733453163 30.79068207434551 27.35319272575964 C 0.0 **** -0.24
31207 H 41.74369564468023 31.626648693703828 28.003723087156516 H 0.0 **** 0.06
31208 H 41.11822562782916 30.173172535918013 27.18805065924039 H 0.0 **** 0.06
31209 H 42.78168033212373 30.191262952202237 27.821707005562587 H 0.0 **** 0.06
31210 H 42.361916482791656 31.172693772217997 26.397101433197008 H 0.0 **** 0.06
31211 C 98.03167894737518 40.0337066185665 31.46582581548904 C 0.0 **** -0.24
31212 H 99.11056197638393 40.16898929998962 31.549799801982715 H 0.0 **** 0.06
31213 H 97.81276015727522 39.3718346142806 30.627471708199664 H 0.0 **** 0.06
31214 H 97.55618258169304 40.99984834054857 31.300145794443267 H 0.0 **** 0.06
31215 H 97.6487927103311 39.59272605242322 32.386563489799926 H 0.0 **** 0.06
31216 C 15.217330225819723 49.650514461864844 69.2410851004363 C 0.0 **** -0.24
31217 H 15.383778697796458 50.11163310787228 68.26762424010616 H 0.0 **** 0.06
31218 H 15.872799915828722 48.78515277633802 69.34996264805199 H 0.0 **** 0.06
31219 H 14.177889861772229 49.33136928634721 69.31912775846183 H 0.0 **** 0.06
31220 H 15.436117812014771 50.37208345185526 70.0273265770235 H 0.0 **** 0.06
31221 C 40.80095512218077 97.85714605322976 108.41218371632881 C 0.0 **** -0.24
31222 H 41.55986012465792 97.17793284207501 108.02451100107812 H 0.0 **** 0.06
31223 H 40.30406640040309 98.35870458188641 107.58215109320149 H 0.0 **** 0.06
31224 H 41.272272010866885 98.60020426999812 109.05600859150893 H 0.0 **** 0.06
31225 H 40.06779574679706 97.29077676557012 108.98708262430199 H 0.0 **** 0.06
31226 C 70.74476932056422 44.762244121507884 1.6679652207816957 C 0.0 **** -0.24
31227 H 71.17549471831711 45.49841285196309 0.9894397808117645 H 0.0 **** 0.06
31228 H 70.17455208594112 44.030469893889425 1.0962875996249153 H 0.0 **** 0.06
31229 H 70.08532386733549 45.26424998307822 2.376822353497431 H 0.0 **** 0.06
31230 H 71.54392449234535 44.257820845999184 2.210332878790055 H 0.0 **** 0.06
31231 C 98.94729845161321 22.851555435885512 30.77674576832834 C 0.0 **** -0.24
31232 H 98.31013504608575 23.348278321633124 30.04525844411782 H 0.0 **** 0.06
31233 H 99.49788942310173 22.046151691740953 30.29089400866242 H 0.0 **** 0.06
31234 H 98.33014873531704 22.44029555730733 31.576246335573188 H 0.0 **** 0.06
31235 H 99.65020445369122 23.572969774238043 31.194987486634716 H 0.0 **** 0.06
31236 C 110.31590684175521 5.426555024113313 13.143103759870542 C 0.0 **** -0.24
31237 H 111.31151106469663 5.646638307836383 13.528508922326665 H 0.0 **** 0.06
31238 H 110.27414811200417 5.672038908965575 12.081365801322477 H 0.0 **** 0.06
31239 H 109.57853811813634 6.020949617954628 13.683163033743142 H 0.0 **** 0.06
31240 H 110.09953940728299 4.366917189444777 13.280749590500506 H 0.0 **** 0.06
31241 C 22.11979818714798 50.03746910247756 54.51944378860958 C 0.0 **** -0.24
31242 H 21.959833297020595 48.96526206838749 54.63449544685125 H 0.0 **** 0.06
31243 H 23.116201375823294 50.29583660110603 54.8789997899288 H 0.0 **** 0.06
31244 H 21.3719731557386 50.580165009103496 55.097758958343775 H 0.0 **** 0.06
31245 H 22.03264280683905 50.30692888466592 53.46671973247618 H 0.0 **** 0.06
31246 C 44.355833876372834 56.226282270060864 8.364148223130343 C 0.0 **** -0.24
31247 H 44.31936176891998 55.337411517825196 8.992928033908356 H 0.0 **** 0.06
31248 H 44.06643862329356 57.098293903904164 8.950417477476861 H 0.0 **** 0.06
31249 H 43.667895915660594 56.10665812794373 7.5258492867793905 H 0.0 **** 0.06
31250 H 45.36909598210362 56.362396547550404 7.985038198255381 H 0.0 **** 0.06
31251 C 36.11860466876681 18.39734059532099 97.04886871040532 C 0.0 **** -0.24
31252 H 35.81240079732123 17.43687251623042 97.4627150341198 H 0.0 **** 0.06
31253 H 35.755438864993096 19.201785563503943 97.68961478341723 H 0.0 **** 0.06
31254 H 35.69904328053144 18.511597024726306 96.0493887152135 H 0.0 **** 0.06
31255 H 37.2064015141666 18.439255227301242 96.99292457947686 H 0.0 **** 0.06
31256 C 59.123803285357965 21.476691125507347 110.03596052466222 C 0.0 **** -0.24
31257 H 58.5388316915393 22.2503973317692 109.53750334347404 H 0.0 **** 0.06
31258 H 60.13731994802288 21.84038086867607 110.20390478915606 H 0.0 **** 0.06
31259 H 59.154735995537436 20.585890712231052 109.40955947528781 H 0.0 **** 0.06
31260 H 58.66126247740979 21.232817014828754 110.99241333581668 H 0.0 **** 0.06
31261 C 12.171000295732199 87.02733627842645 9.165633971349337 C 0.0 **** -0.24
31262 H 12.784820301979238 86.46513426482494 9.869621520537862 H 0.0 **** 0.06
31263 H 12.72278860903188 87.17024899225838 8.236544542065872 H 0.0 **** 0.06
31264 H 11.922160938576553 87.99809120815613 9.594865166535385 H 0.0 **** 0.06
31265 H 11.253800554622146 86.47419442081699 8.961574378194939 H 0.0 **** 0.06
31266 C 29.542857119328062 2.7108247878151595 6.596686676652723 C 0.0 **** -0.24
31267 H 29.311265374130016 1.7460719542504481 6.145192717625918 H 0.0 **** 0.06
31268 H 30.38361637122324 3.1644795633901506 6.072982835502458 H 0.0 **** 0.06
31269 H 29.801539841451586 2.5683610814322044 7.64592110991363 H 0.0 **** 0.06
31270 H 28.673050499605893 3.364199442724523 6.523021193320176 H 0.0 **** 0.06
31271 C 95.62256230110188 9.931747173585052 38.37486282331412 C 0.0 **** -0.24
31272 H 94.56332713950601 10.186349111370646 38.40873421376102 H 0.0 **** 0.06
31273 H 95.78907230375788 9.16655383155154 37.61618096334405 H 0.0 **** 0.06
31274 H 95.93647256505372 9.552830130396217 39.3478457703016 H 0.0 **** 0.06
31275 H 96.20187387140436 10.821453763708348 38.12753539612612 H 0.0 **** 0.06
31276 C 64.34988186772466 26.31685646008077 107.0096507478049 C 0.0 **** -0.24
31277 H 63.26149054798766 26.338105787213145 107.06595671452345 H 0.0 **** 0.06
31278 H 64.67778354565742 26.877046085512433 106.13353164997345 H 0.0 **** 0.06
31279 H 64.68937109730616 25.28437190304396 106.92957432726645 H 0.0 **** 0.06
31280 H 64.76971715678482 26.769784459841418 107.90849176849879 H 0.0 **** 0.06
31281 C 104.3932562174424 113.79015987170295 68.26452672416778 C 0.0 **** -0.24
31282 H 105.46546329594759 113.89654473460776 68.43156216407488 H 0.0 **** 0.06
31283 H 104.08580299721838 114.44888638372502 67.45225308709456 H 0.0 **** 0.06
31284 H 103.8556906801825 114.05861367752178 69.17463686697812 H 0.0 **** 0.06
31285 H 104.16781934937508 112.75730783822458 68.00084814260663 H 0.0 **** 0.06
31286 C 19.084008742740366 96.0880844573396 63.74135561334438 C 0.0 **** -0.24
31287 H 19.04379788324104 95.27364447739815 63.01706337876777 H 0.0 **** 0.06
31288 H 18.08018900959209 96.29176260538192 64.11538470658792 H 0.0 **** 0.06
31289 H 19.481729732434502 96.98225403990725 63.26051013572061 H 0.0 **** 0.06
31290 H 19.730007625703365 95.80343266274878 64.57129976744861 H 0.0 **** 0.06
31291 C 75.51055229133013 21.023181250722097 74.90287689576611 C 0.0 **** -0.24
31292 H 74.70011792811272 20.833812610214533 74.19825268730888 H 0.0 **** 0.06
31293 H 76.40814123875793 20.499857100175362 74.57274738670391 H 0.0 **** 0.06
31294 H 75.22288584457394 20.665405793515692 75.89119478949654 H 0.0 **** 0.06
31295 H 75.70989790792773 22.09457740781297 74.94764564430135 H 0.0 **** 0.06
31296 C 34.116970095760195 20.531470310829988 45.742702096617506 C 0.0 **** -0.24
31297 H 33.79766983253626 19.54990810167135 45.392718505022685 H 0.0 **** 0.06
31298 H 34.79329124043403 20.975714705185922 45.01194069934127 H 0.0 **** 0.06
31299 H 34.630543087142314 20.42680765101653 46.6974994387877 H 0.0 **** 0.06
31300 H 33.24503296001433 21.173981998259634 45.8676939042748 H 0.0 **** 0.06
31301 C 18.061228592204344 72.45576222800258 95.66959347550986 C 0.0 **** -0.24
31302 H 18.886610136437156 71.97857439890845 95.14063064696825 H 0.0 **** 0.06
31303 H 17.969756528652738 72.02274130834815 96.66567946403276 H 0.0 **** 0.06
31304 H 17.13617388517619 72.2964370505153 95.11666693510676 H 0.0 **** 0.06
31305 H 18.25482680428513 73.52532362116148 95.75340119183733 H 0.0 **** 0.06
31306 C 71.75164081257512 92.96793473549917 86.18839810522435 C 0.0 **** -0.24
31307 H 72.52932449078169 93.00926194489813 86.95112526553396 H 0.0 **** 0.06
31308 H 72.20373258621518 92.75810280018277 85.219150909061 H 0.0 **** 0.06
31309 H 71.2311572067107 93.92434552611024 86.14804068355856 H 0.0 **** 0.06
31310 H 71.04096243367201 92.17891407219099 86.43663036187952 H 0.0 **** 0.06
31311 C 86.89245879425587 22.30539027888858 49.61548188358955 C 0.0 **** -0.24
31312 H 86.8361995451211 22.86023254931513 48.67879542447781 H 0.0 **** 0.06
31313 H 86.86762139206496 21.23658726891435 49.40634866448136 H 0.0 **** 0.06
31314 H 86.04510050243005 22.573133665584805 50.24739406910322 H 0.0 **** 0.06
31315 H 87.82115255450012 22.55473543557494 50.12898890383724 H 0.0 **** 0.06
31316 C 106.66965726829298 2.650422699152884 18.86991009764722 C 0.0 **** -0.24
31317 H 106.79331218668744 3.651982725024425 19.283339172617957 H 0.0 **** 0.06
31318 H 105.83704152877559 2.6501505201576805 18.164652942812552 H 0.0 **** 0.06
31319 H 106.46212721129507 1.947798932009107 19.676765507369623 H 0.0 **** 0.06
31320 H 107.58238325882621 2.353939522447888 18.35461750600342 H 0.0 **** 0.06
31321 C 26.005622488180855 31.447418524300105 102.96222115038856 C 0.0 **** -0.24
31322 H 25.8859804271507 30.366306260944555 103.0251142889287 H 0.0 **** 0.06
31323 H 26.191873822308693 31.850500466200998 103.95801881114242 H 0.0 **** 0.06
31324 H 25.097340840367046 31.89064561922092 102.55357611792209 H 0.0 **** 0.06
31325 H 26.848647783594025 31.682610843961868 102.31204001055954 H 0.0 **** 0.06
31326 C 96.65855245762395 52.92940418875431 2.451541309827917 C 0.0 **** -0.24
31327 H 97.19966219902616 52.274603199122296 1.7693548251273228 H 0.0 **** 0.06
31328 H 95.8725531189196 52.362858059685195 2.951861340855885 H 0.0 **** 0.06
31329 H 96.21407137260212 53.75125178318385 1.8910624113663346 H 0.0 **** 0.06
31330 H 97.34913984959138 53.32840988673844 3.195696644710921 H 0.0 **** 0.06
31331 C 107.63214572598893 32.39634878748761 93.11036853364948 C 0.0 **** -0.24
31332 H 107.46572085484878 31.386322284525306 93.4859465223538 H 0.0 **** 0.06
31333 H 108.50269364012608 32.40018715920661 92.45385562875418 H 0.0 **** 0.06
31334 H 107.80485617146479 33.07196474951141 93.94807416468066 H 0.0 **** 0.06
31335 H 106.75499842763267 32.72482485544635 92.55236972107957 H 0.0 **** 0.06
31336 C 8.821421584828897 114.42341910426718 13.71335703509996 C 0.0 **** -0.24
31337 H 8.332873860573272 115.02066282211243 14.48357365771356 H 0.0 **** 0.06
31338 H 9.233398859787656 113.51955998885981 14.162011658876896 H 0.0 **** 0.06
31339 H 9.626078305907441 115.00387819344677 13.260314598589034 H 0.0 **** 0.06
31340 H 8.094022115607231 114.15221329128175 12.948781385355836 H 0.0 **** 0.06
31341 C 32.99486815875681 12.824911799036713 21.518991006571877 C 0.0 **** -0.24
31342 H 32.96518636615433 13.914240599128561 21.508828169408577 H 0.0 **** 0.06
31343 H 33.88573976237594 12.480869920136925 20.992869759722392 H 0.0 **** 0.06
31344 H 32.105578742129445 12.432613894164604 21.024720539572233 H 0.0 **** 0.06
31345 H 33.02215227002105 12.472126913969646 22.55068284080633 H 0.0 **** 0.06
31346 C 51.88771481679635 112.96745963369226 61.95884440820883 C 0.0 **** -0.24
31347 H 51.75484519295463 111.91672808707669 61.698622371695976 H 0.0 **** 0.06
31348 H 51.671203181424175 113.58710260119592 61.08909455161597 H 0.0 **** 0.06
31349 H 52.916067757922235 113.13448679415455 62.27768708333535 H 0.0 **** 0.06
31350 H 51.20865771916351 113.22871815104678 62.77034363075579 H 0.0 **** 0.06
31351 C 113.73586130377117 91.22839407281056 32.33897318716163 C 0.0 **** -0.24
31352 H 113.79218802788358 90.61381075915907 33.23747149518795 H 0.0 **** 0.06
31353 H 114.26241982099901 90.72878281914757 31.52440679480884 H 0.0 **** 0.06
31354 H 114.19836185200597 92.19647728640683 32.53125081532613 H 0.0 **** 0.06
31355 H 112.69191887528552 91.37255888265636 32.063121437806444 H 0.0 **** 0.06
31356 C 19.01727998979078 65.09660411737805 76.81793906882604 C 0.0 **** -0.24
31357 H 18.22731045623476 64.4795132723637 76.39047146822963 H 0.0 **** 0.06
31358 H 19.724917976125965 65.37340837009182 76.03595154711093 H 0.0 **** 0.06
31359 H 19.535606597787734 64.5344815922458 77.5945987971773 H 0.0 **** 0.06
31360 H 18.580863266871006 65.99708479988959 77.24928405561451 H 0.0 **** 0.06
31361 C 24.969950752887087 14.327927714594537 44.834931222868825 C 0.0 **** -0.24
31362 H 24.135836094334593 14.330725781430942 45.53693014538526 H 0.0 **** 0.06
31363 H 25.859986237345765 13.938625693698498 45.331146329481356 H 0.0 **** 0.06
31364 H 25.160086997094254 15.345119100098273 44.49172942026268 H 0.0 **** 0.06
31365 H 24.7244403337005 13.696203684108156 43.981823443641424 H 0.0 **** 0.06
31366 C 96.27038504840539 114.94500347811457 92.51948011217647 C 0.0 **** -0.24
31367 H 96.6746902173152 113.93246977405673 92.53432694499186 H 0.0 **** 0.06
31368 H 96.31863898417532 115.33951968933526 91.50412445168243 H 0.0 **** 0.06
31369 H 96.85636213151216 115.57972957297834 93.18463816078345 H 0.0 **** 0.06
31370 H 95.23346745518884 114.92699898202436 92.85399357738625 H 0.0 **** 0.06
31371 C 106.70838733472141 101.84425422759301 76.47742651958106 C 0.0 **** -0.24
31372 H 107.1534801994257 100.87727754189709 76.23927512738956 H 0.0 **** 0.06
31373 H 107.30207915668643 102.33726805120148 77.2478088899988 H 0.0 **** 0.06
31374 H 105.69138270806229 101.69583745410705 76.84201213366563 H 0.0 **** 0.06
31375 H 106.68692557450217 102.46341467490024 75.5813421414691 H 0.0 **** 0.06
31376 C 96.91347156714016 78.00043893576154 4.7912039685593015 C 0.0 **** -0.24
31377 H 96.31819695662523 77.3078364443437 5.386474073476535 H 0.0 **** 0.06
31378 H 97.55295942013777 78.58902759060359 5.449641727168398 H 0.0 **** 0.06
31379 H 96.25067348272358 78.6653890487763 4.238071469456486 H 0.0 **** 0.06
31380 H 97.5317096351618 77.4387295898988 4.091159799375106 H 0.0 **** 0.06
31381 C 10.57151826547306 75.1415424068278 98.38799534423826 C 0.0 **** -0.24
31382 H 9.908220277080147 75.92410803139444 98.75551587231307 H 0.0 **** 0.06
31383 H 10.822742834447581 75.33743922876965 97.3456483779823 H 0.0 **** 0.06
31384 H 10.072371080445862 74.17569559953688 98.4662295320003 H 0.0 **** 0.06
31385 H 11.483362827716206 75.12791577704246 98.98535485501921 H 0.0 **** 0.06
31386 C 61.1507622819982 32.312935951060695 27.809001149013625 C 0.0 **** -0.24
31387 H 61.919479457885984 31.56371080356803 27.618758787485547 H 0.0 **** 0.06
31388 H 61.60919398913441 33.19997114006401 28.246688849997554 H 0.0 **** 0.06
31389 H 60.41276002856779 31.906750141071598 28.50075061132793 H 0.0 **** 0.06
31390 H 60.66318526362397 32.578906399236075 26.871465075775177 H 0.0 **** 0.06
31391 C 51.69878920523766 0.35008759911681864 9.784528691112257 C 0.0 **** -0.24
31392 H 52.437669320941424 1.0181241733438355 10.227353573059986 H 0.0 **** 0.06
31393 H 51.01599375150215 -0.0007592746487716795 10.5588460920074 H 0.0 **** 0.06
31394 H 52.20534258729147 -0.5032442426546595 9.332973572052481 H 0.0 **** 0.06
31395 H 51.13662663001739 0.8858476956642107 9.019734009556146 H 0.0 **** 0.06
31396 C 84.45534327344592 47.34104258570477 110.29076918704226 C 0.0 **** -0.24
31397 H 84.14565355761243 48.10277727157066 109.57427970204759 H 0.0 **** 0.06
31398 H 85.3041035555213 47.7092957093397 110.86697068783718 H 0.0 **** 0.06
31399 H 84.7440957101831 46.43600602496278 109.75604549674856 H 0.0 **** 0.06
31400 H 83.62819606437287 47.11689262315534 110.96296985552979 H 0.0 **** 0.06
31401 C 3.473666331794277 53.39935692046032 92.6422075901472 C 0.0 **** -0.24
31402 H 4.099434466343055 53.540187470305 91.76115451129715 H 0.0 **** 0.06
31403 H 4.098488245015986 53.12208090697732 93.49107043479341 H 0.0 **** 0.06
31404 H 2.7482201977233984 52.60776920432224 92.44950715634849 H 0.0 **** 0.06
31405 H 2.946893072618664 54.32700940485847 92.86530922334822 H 0.0 **** 0.06
31406 C 100.05683427312172 93.8969201730657 0.6926068362175126 C 0.0 **** -0.24
31407 H 99.435810628458 93.0128103128271 0.5468914712986948 H 0.0 **** 0.06
31408 H 100.8879477143401 93.87698985822067 -0.012885068692343182 H 0.0 **** 0.06
31409 H 100.4444544088658 93.90414432294 1.711389444435893 H 0.0 **** 0.06
31410 H 99.45949727565545 94.79238907459944 0.5252466515811971 H 0.0 **** 0.06
31411 C 61.05483489804976 43.67120527090677 101.59494395077272 C 0.0 **** -0.24
31412 H 61.63830087812093 42.99548391858585 102.22152015928887 H 0.0 **** 0.06
31413 H 61.411026522880306 44.69243870512213 101.73367897353207 H 0.0 **** 0.06
31414 H 60.003957717530284 43.61056792161514 101.87609828315094 H 0.0 **** 0.06
31415 H 61.169182627996605 43.38555423516365 100.54926109358384 H 0.0 **** 0.06
31416 C 44.14735503343705 101.32259638356498 110.39541301055476 C 0.0 **** -0.24
31417 H 45.09805909877813 101.52756810756588 109.90328912072667 H 0.0 **** 0.06
31418 H 44.1025092197374 100.2695120558106 110.67300948604507 H 0.0 **** 0.06
31419 H 43.32852534084671 101.55380624289063 109.71381891373886 H 0.0 **** 0.06
31420 H 44.06126559614081 101.93873557050054 111.29029548947653 H 0.0 **** 0.06
31421 C 85.09847399493043 14.500522380196529 23.031960872524365 C 0.0 **** -0.24
31422 H 84.66366515112935 15.483052617425827 22.84561920827528 H 0.0 **** 0.06
31423 H 84.8296741451203 14.16769863489003 24.034483464766367 H 0.0 **** 0.06
31424 H 86.18389413389554 14.562620951874806 22.947577811761306 H 0.0 **** 0.06
31425 H 84.71701797156612 13.790189009905049 22.29851738130273 H 0.0 **** 0.06
31426 C 76.41221748755352 88.42140780463279 10.455636933006428 C 0.0 **** -0.24
31427 H 75.50048367714564 87.83339423790926 10.56602316876321 H 0.0 **** 0.06
31428 H 76.15484121833236 89.47858528940918 10.380931830540085 H 0.0 **** 0.06
31429 H 76.93771614485219 88.11012170569273 9.553168847445196 H 0.0 **** 0.06
31430 H 77.05349347214492 88.26331792543243 11.323131771044768 H 0.0 **** 0.06
31431 C 67.49433285039154 41.283561802191514 86.79389208461707 C 0.0 **** -0.24
31432 H 68.11722542564189 42.14726092662741 87.02660911827884 H 0.0 **** 0.06
31433 H 66.52665497370134 41.62294322204269 86.42470741516105 H 0.0 **** 0.06
31434 H 67.35078065081245 40.68654002876772 87.69573544726401 H 0.0 **** 0.06
31435 H 67.98326426843533 40.67720308477524 86.03176565309028 H 0.0 **** 0.06
31436 C 14.531333306035716 84.30819063160496 96.08396395413543 C 0.0 **** -0.24
31437 H 14.157465495219146 83.28372839897062 96.11773792364141 H 0.0 **** 0.06
31438 H 13.8305644304148 84.96704222349132 96.59664134895763 H 0.0 **** 0.06
31439 H 14.634381293071353 84.622294671757 95.04516304218672 H 0.0 **** 0.06
31440 H 15.5030977022789 84.35539792170101 96.57561626418959 H 0.0 **** 0.06
31441 C 28.511101323267525 45.35839541753113 94.94709605357053 C 0.0 **** -0.24
31442 H 28.333473729413612 44.28460754503902 94.88163889355761 H 0.0 **** 0.06
31443 H 27.790329710292582 45.80369538843081 95.63460962222419 H 0.0 **** 0.06
31444 H 28.397997270270068 45.806414509799495 93.9600454459038 H 0.0 **** 0.06
31445 H 29.52189396278947 45.536908573741925 95.3146730931192 H 0.0 **** 0.06
31446 C 53.416367694041696 17.481193345606258 96.83748807720869 C 0.0 **** -0.24
31447 H 54.439394020245174 17.3682891719927 97.19534740332884 H 0.0 **** 0.06
31448 H 52.72388429141816 17.3563134615229 97.67049909683902 H 0.0 **** 0.06
31449 H 53.21095250706338 16.72739729401158 96.07796018352036 H 0.0 **** 0.06
31450 H 53.29045257022844 18.474850868051234 96.40589134129073 H 0.0 **** 0.06
31451 C 0.7386562905620906 46.936782027445524 41.49738388458501 C 0.0 **** -0.24
31452 H -0.06553052239841861 46.2280332041087 41.2975932991515 H 0.0 **** 0.06
31453 H 1.521578501665175 46.4437270560112 42.07418731621021 H 0.0 **** 0.06
31454 H 0.34539275450916307 47.781614318797914 42.06282065879349 H 0.0 **** 0.06
31455 H 1.1515065109304743 47.29158481207875 40.55335888481085 H 0.0 **** 0.06
31456 C 5.692181836808288 39.490620911619004 18.288915933456508 C 0.0 **** -0.24
31457 H 4.773088953733577 39.74798368006998 17.761100326916306 H 0.0 **** 0.06
31458 H 6.051226957272419 40.36038267140111 18.838223299102424 H 0.0 **** 0.06
31459 H 6.448060459337114 39.176949361018984 17.569383318151637 H 0.0 **** 0.06
31460 H 5.494064760533718 38.675492616402465 18.98597340899414 H 0.0 **** 0.06
31461 C 108.07434253844215 111.54995315489779 60.02021204267203 C 0.0 **** -0.24
31462 H 109.04054424906224 111.3252511575771 59.5669429175438 H 0.0 **** 0.06
31463 H 107.45487665566023 110.6531085269437 60.01700484039185 H 0.0 **** 0.06
31464 H 107.57971263975952 112.33584965595102 59.44988364901158 H 0.0 **** 0.06
31465 H 108.22435520456827 111.88456153660465 61.04636356565564 H 0.0 **** 0.06
31466 C 105.97972213382319 50.05420600114451 53.88861040796251 C 0.0 **** -0.24
31467 H 106.15030630642585 50.42612171040125 52.877924826261676 H 0.0 **** 0.06
31468 H 106.92366581056811 50.037945205239254 54.433577825405 H 0.0 **** 0.06
31469 H 105.56990917280697 49.045649795442785 53.84003843751498 H 0.0 **** 0.06
31470 H 105.27499395833043 50.70906826352234 54.40182597098009 H 0.0 **** 0.06
31471 C 86.7352308468034 69.30402789407185 0.5281373136828904 C 0.0 **** -0.24
31472 H 85.93559652419282 70.0342021339199 0.4016892625832327 H 0.0 **** 0.06
31473 H 87.68994841777143 69.76321573389492 0.26970453750590195 H 0.0 **** 0.06
31474 H 86.55398416070034 68.44877862790236 -0.12337394753642172 H 0.0 **** 0.06
31475 H 86.7605383735121 68.97101332057196 1.5662791363033932 H 0.0 **** 0.06
31476 C 14.943908806177632 19.74395076424753 45.59041113416765 C 0.0 **** -0.24
31477 H 14.761226598569095 20.40838370543915 44.745751058911196 H 0.0 **** 0.06
31478 H 14.424962771987566 18.799513934970975 45.42824266422133 H 0.0 **** 0.06
31479 H 14.576560289638564 20.209817577254995 46.504675712984294 H 0.0 **** 0.06
31480 H 16.014757370024398 19.560275712446582 45.680585466395996 H 0.0 **** 0.06
31481 C 89.80691196897634 10.40353897850892 83.58537181570922 C 0.0 **** -0.24
31482 H 88.76430528171763 10.084381939440988 83.57185555200486 H 0.0 **** 0.06
31483 H 90.22563978534002 10.316625589894272 82.58191941049172 H 0.0 **** 0.06
31484 H 90.37109191701985 9.772017057525744 84.2708712997389 H 0.0 **** 0.06
31485 H 89.86572423641081 11.441050182837202 83.91478977119492 H 0.0 **** 0.06
31486 C 2.3748445411200425 23.44855152544642 92.05203688893477 C 0.0 **** -0.24
31487 H 2.40277699345188 22.914279406729296 93.0021677667828 H 0.0 **** 0.06
31488 H 2.813459196006452 24.438904634552898 92.17969085917719 H 0.0 **** 0.06
31489 H 1.3409898331025847 23.54860711836875 91.72282597402972 H 0.0 **** 0.06
31490 H 2.94197337658289 22.892345957301416 91.3059050092337 H 0.0 **** 0.06
31491 C 96.69287491804533 75.27853272248139 81.2839798308841 C 0.0 **** -0.24
31492 H 97.11083747020793 75.28355184834237 80.27778372015285 H 0.0 **** 0.06
31493 H 95.66659107048493 74.91195963728786 81.24929217640135 H 0.0 **** 0.06
31494 H 96.7038032087702 76.29172809843172 81.68662644628154 H 0.0 **** 0.06
31495 H 97.29026792271844 74.62689130586358 81.92221698070074 H 0.0 **** 0.06
31496 C 67.24149697776372 62.8649357421878 34.82989432273885 C 0.0 **** -0.24
31497 H 66.47872333323305 62.773394995293756 34.056529451523886 H 0.0 **** 0.06
31498 H 66.80976453695939 62.60623702399599 35.7970213351669 H 0.0 **** 0.06
31499 H 67.60809797517769 63.89040971780376 34.85782839853505 H 0.0 **** 0.06
31500 H 68.06736206593077 62.18943529229915 34.60732177156295 H 0.0 **** 0.06
31501 C 17.560960125057534 88.63502296506641 62.14364641024139 C 0.0 **** -0.24
31502 H 16.72022616665714 88.7978310931565 62.818429717061576 H 0.0 **** 0.06
31503 H 17.270976011039068 88.91081987428561 61.12944235273798 H 0.0 **** 0.06
31504 H 17.846281671604174 87.58359035639955 62.167175175971806 H 0.0 **** 0.06
31505 H 18.404165185002228 89.24855296050731 62.46037769172557 H 0.0 **** 0.06
31506 C 59.447068495086455 43.776947618837106 27.25740537270957 C 0.0 **** -0.24
31507 H 58.52111823780501 43.736971023485005 26.684475623602225 H 0.0 **** 0.06
31508 H 60.26697406382698 44.071909491044586 26.601869747432602 H 0.0 **** 0.06
31509 H 59.65508100100948 42.79412819660848 27.680279266941966 H 0.0 **** 0.06
31510 H 59.344195281207135 44.50530745720976 28.06204605436733 H 0.0 **** 0.06
31511 C 11.786742405976298 89.36644992951966 46.129040921093264 C 0.0 **** -0.24
31512 H 12.538645805382828 89.17744824177936 46.89513307417748 H 0.0 **** 0.06
31513 H 11.464505919856151 90.40671682402962 46.18555685613951 H 0.0 **** 0.06
31514 H 10.930092334828544 88.71182830604076 46.29207094417585 H 0.0 **** 0.06
31515 H 12.212855762332708 89.16995854438011 45.145197387410846 H 0.0 **** 0.06
31516 C 77.75376175023138 104.72843846832363 48.62123802941653 C 0.0 **** -0.24
31517 H 78.15607146241314 105.2827841531152 47.77334693404728 H 0.0 **** 0.06
31518 H 76.9083245627283 105.27263965775742 49.042365790220515 H 0.0 **** 0.06
31519 H 78.52660857624949 104.61311061137862 49.38032942688204 H 0.0 **** 0.06
31520 H 77.422757819006 103.74523836920652 48.286824340437306 H 0.0 **** 0.06
31521 C 14.421721116362107 80.52169819310807 41.95191842585657 C 0.0 **** -0.24
31522 H 14.114676800863748 80.6705222544113 40.91660796419108 H 0.0 **** 0.06
31523 H 14.332081955261941 81.46244366752101 42.495785476323555 H 0.0 **** 0.06
31524 H 15.457017954002112 80.18281125891905 41.97904072488442 H 0.0 **** 0.06
31525 H 13.78026937854321 79.77151427502343 42.41540560526462 H 0.0 **** 0.06
31526 C 88.52407806941123 74.7505302157777 114.16190770759499 C 0.0 **** -0.24
31527 H 88.64951553812341 74.54309766871204 115.22454298166153 H 0.0 **** 0.06
31528 H 89.32611660622243 75.40663151329673 113.8233019733592 H 0.0 **** 0.06
31529 H 87.56298072867186 75.23845194808843 113.99858637210804 H 0.0 **** 0.06
31530 H 88.55721787518593 73.81544526646472 113.60278120573103 H 0.0 **** 0.06
31531 C 49.429334293442196 89.91953293054632 28.57834584754096 C 0.0 **** -0.24
31532 H 48.4710980919063 89.83242472336133 29.091312848461428 H 0.0 **** 0.06
31533 H 49.921214924502294 90.84322759447784 28.88368857831273 H 0.0 **** 0.06
31534 H 49.264245478256896 89.93341742362617 27.501475195633873 H 0.0 **** 0.06
31535 H 50.05888980004596 89.06866415229888 28.839603894734125 H 0.0 **** 0.06
31536 C 10.85302846878983 80.11205242954881 70.21379076854902 C 0.0 **** -0.24
31537 H 11.02188142225458 79.87235065163503 69.16447230814492 H 0.0 **** 0.06
31538 H 10.36614437686859 81.0851910991557 70.28980828830476 H 0.0 **** 0.06
31539 H 11.808359623028537 80.14206139341293 70.73748761377297 H 0.0 **** 0.06
31540 H 10.215843600130654 79.35114358161445 70.66214955744124 H 0.0 **** 0.06
31541 C 61.01646850925705 63.82360722921129 34.15499268605777 C 0.0 **** -0.24
31542 H 61.88901863460542 64.35608681179997 34.5329229768073 H 0.0 **** 0.06
31543 H 61.32639055966119 62.85702814480999 33.7554656464589 H 0.0 **** 0.06
31544 H 60.54678353268966 64.40954205331991 33.36494967571588 H 0.0 **** 0.06
31545 H 60.30537266986224 63.67035129140413 34.96698092471809 H 0.0 **** 0.06
31546 C 94.32138541037853 93.97516420575313 0.747462555830225 C 0.0 **** -0.24
31547 H 94.0844098780473 93.90471827492317 1.8087657579818597 H 0.0 **** 0.06
31548 H 93.61702593176855 93.36817232972618 0.17716505626236767 H 0.0 **** 0.06
31549 H 95.33522303009309 93.61334936068418 0.5765800062132485 H 0.0 **** 0.06
31550 H 94.24767689162556 95.01515567272718 0.4273462708897 H 0.0 **** 0.06
31551 C 100.03979008273959 41.19589602190753 71.87122028660502 C 0.0 **** -0.24
31552 H 100.83923565665381 41.38223756725524 71.15304743652445 H 0.0 **** 0.06
31553 H 99.59446092045094 40.22095646783257 71.67366942486184 H 0.0 **** 0.06
31554 H 99.27842014300467 41.969777024814455 71.77461515574248 H 0.0 **** 0.06
31555 H 100.44806551810707 41.21192786303534 72.88175267310143 H 0.0 **** 0.06
31556 C 52.63829323595678 55.42858710652547 18.955507802854385 C 0.0 **** -0.24
31557 H 53.620966166090454 55.1323367162409 18.58750479402586 H 0.0 **** 0.06
31558 H 51.87225163561544 55.097911048242224 18.25460900369677 H 0.0 **** 0.06
31559 H 52.599852983467656 56.51437788406423 19.05207581981381 H 0.0 **** 0.06
31560 H 52.46324078502232 54.97052382187695 19.92942528946969 H 0.0 **** 0.06
31561 C 63.440757815637696 94.57991954076908 75.00147582824957 C 0.0 **** -0.24
31562 H 62.50991479920356 95.07937896789709 74.731540367756 H 0.0 **** 0.06
31563 H 63.254521333529624 93.51429332668195 75.13931763465803 H 0.0 **** 0.06
31564 H 63.82468328900855 95.0056008723799 75.92879627612928 H 0.0 **** 0.06
31565 H 64.1721966880323 94.72137285375169 74.20590013618855 H 0.0 **** 0.06
31566 C 3.4246214550114473 72.50502761811973 1.3803735965641692 C 0.0 **** -0.24
31567 H 3.124448157484977 72.61207330110426 2.4226277658291764 H 0.0 **** 0.06
31568 H 2.8164392158044507 73.16280414653166 0.7583020268868665 H 0.0 **** 0.06
31569 H 3.2803965961747394 71.47128391529684 1.0650741467334655 H 0.0 **** 0.06
31570 H 4.475298653231079 72.77354248757686 1.2743891826564493 H 0.0 **** 0.06
31571 C 54.34218253883403 1.3021080306562798 101.49461614027949 C 0.0 **** -0.24
31572 H 55.05905986937493 1.6909362990343428 102.21791693110573 H 0.0 **** 0.06
31573 H 54.10617705000651 2.0765659945521335 100.76449570396862 H 0.0 **** 0.06
31574 H 53.43257869090637 0.9990163075964453 102.01191753197197 H 0.0 **** 0.06
31575 H 54.77401295365282 0.44074925435502266 100.98392232863024 H 0.0 **** 0.06
31576 C 111.22258406161426 33.16840425599321 59.14214194997294 C 0.0 **** -0.24
31577 H 110.890281554173 33.20852371212047 60.17986593667683 H 0.0 **** 0.06
31578 H 110.53612357796433 33.74100378833842 58.51851519562979 H 0.0 **** 0.06
31579 H 111.23944509205101 32.13139077571955 58.80629626723828 H 0.0 **** 0.06
31580 H 112.22358476304305 33.591851587423065 59.064576086016416 H 0.0 **** 0.06
31581 C 59.455603649165965 98.96600248508291 36.788424766983354 C 0.0 **** -0.24
31582 H 59.32284676609561 98.87432819533686 35.70987942432623 H 0.0 **** 0.06
31583 H 60.513106031249436 98.85974081433618 37.033434583825 H 0.0 **** 0.06
31584 H 58.88617353743069 98.18502684230303 37.29191649799691 H 0.0 **** 0.06
31585 H 59.10224483313044 99.94233114655582 37.11659745604223 H 0.0 **** 0.06
31586 C 85.44445711759505 53.411909075465495 20.7023171843353 C 0.0 **** -0.24
31587 H 86.48369672661795 53.73944692114604 20.74036433262586 H 0.0 **** 0.06
31588 H 85.33991868461305 52.619540952945314 19.961144445262903 H 0.0 **** 0.06
31589 H 84.80876109952226 54.25405288277611 20.42697559124116 H 0.0 **** 0.06
31590 H 85.14605327295067 53.036620513297834 21.68151799616129 H 0.0 **** 0.06
31591 C 48.28756045831665 20.12795803663215 12.93576025165973 C 0.0 **** -0.24
31592 H 48.914164439623164 19.450344020606963 13.514687867622186 H 0.0 **** 0.06
31593 H 47.79924672319066 20.834170296794525 13.606782201437085 H 0.0 **** 0.06
31594 H 47.53164067810246 19.55438868630813 12.39912531448968 H 0.0 **** 0.06
31595 H 48.90539991249494 20.673100313351597 12.221057549638886 H 0.0 **** 0.06
31596 C 104.83604154807512 113.28863787231508 72.19399800328793 C 0.0 **** -0.24
31597 H 105.20418330362932 113.77606543784154 73.09644497538541 H 0.0 **** 0.06
31598 H 105.11478265187122 113.88143768112556 71.32246351129882 H 0.0 **** 0.06
31599 H 103.75080860368797 113.2022159587634 72.24397039887538 H 0.0 **** 0.06
31600 H 105.27645230652604 112.29420530852411 72.11251258516208 H 0.0 **** 0.06
31601 C 99.20888292840408 54.04612839426011 38.41610092420865 C 0.0 **** -0.24
31602 H 98.31101946791534 54.542274187869374 38.04985917602599 H 0.0 **** 0.06
31603 H 98.98490227963276 53.001393631655446 38.633353175404295 H 0.0 **** 0.06
31604 H 99.55191626673388 54.54124798869246 39.325278764360064 H 0.0 **** 0.06
31605 H 99.9887415491691 54.099937580404934 37.656799515392095 H 0.0 **** 0.06
31606 C 12.45743992004131 34.940189662023045 90.8614834948226 C 0.0 **** -0.24
31607 H 12.301629895251608 34.31741225609713 91.7427831791711 H 0.0 **** 0.06
31608 H 13.40828324254926 34.678528266816244 90.39591726564768 H 0.0 **** 0.06
31609 H 12.473663667728914 35.98947377331302 91.15752444353497 H 0.0 **** 0.06
31610 H 11.646592612155644 34.773974205015236 90.15252961950327 H 0.0 **** 0.06
31611 C 4.746079049012593 18.733423208035287 66.10653952891113 C 0.0 **** -0.24
31612 H 4.410654177775029 18.723905426499506 65.06904583139496 H 0.0 **** 0.06
31613 H 4.430570399518331 17.8133227762164 66.59890328385319 H 0.0 **** 0.06
31614 H 4.310588068871539 19.589599806040436 66.62093504539092 H 0.0 **** 0.06
31615 H 5.833725392320105 18.80657229611533 66.13473979168043 H 0.0 **** 0.06
31616 C 83.20221337179032 45.59424727917869 38.011160973278606 C 0.0 **** -0.24
31617 H 82.84351238212008 45.02213754028732 37.155877063818934 H 0.0 **** 0.06
31618 H 82.75384466942063 45.20120772307546 38.924302823548715 H 0.0 **** 0.06
31619 H 82.92242055709221 46.64137785141288 37.88993318355705 H 0.0 **** 0.06
31620 H 84.2867489769958 45.51185416463367 38.0738856396855 H 0.0 **** 0.06
31621 C 56.16641267238094 80.16596324792934 83.5191035633365 C 0.0 **** -0.24
31622 H 56.11755561910809 80.94179757239958 82.75520459818983 H 0.0 **** 0.06
31623 H 55.44961093216756 80.38943889284721 84.30995343360115 H 0.0 **** 0.06
31624 H 57.172398460019 80.13318041428747 83.93805280052237 H 0.0 **** 0.06
31625 H 55.927657489849366 79.20121697598645 83.07260486149792 H 0.0 **** 0.06
31626 C 93.47692243016033 1.8233500420468687 24.085080451828958 C 0.0 **** -0.24
31627 H 92.90049642205531 1.5156299077177806 23.21261272553494 H 0.0 **** 0.06
31628 H 94.03689715218383 2.7284189031588824 23.84901850861789 H 0.0 **** 0.06
31629 H 94.17000506558088 1.028967544030536 24.362030739419907 H 0.0 **** 0.06
31630 H 92.79904801151005 2.0209375757595467 24.916274814875464 H 0.0 **** 0.06
31631 C 33.362670538777934 26.41292425400843 13.409682509489627 C 0.0 **** -0.24
31632 H 34.03016301454653 26.93457907465563 14.096083731529802 H 0.0 **** 0.06
31633 H 32.32788922679771 26.619303020720395 13.682748408716918 H 0.0 **** 0.06
31634 H 33.54801718600038 25.34101080523385 13.468891140930538 H 0.0 **** 0.06
31635 H 33.5460990863221 26.757914685845606 12.392254817634765 H 0.0 **** 0.06
31636 C 102.3764781667595 84.97619198031363 100.71976825457324 C 0.0 **** -0.24
31637 H 102.08546668292523 84.06491428050062 100.19645871575511 H 0.0 **** 0.06
31638 H 102.59272509322246 84.74262399144529 101.76220569118465 H 0.0 **** 0.06
31639 H 101.56158517343096 85.69934545540708 100.66886540847193 H 0.0 **** 0.06
31640 H 103.26482286834413 85.39655084796412 100.24880472861736 H 0.0 **** 0.06
31641 C 11.480702863220358 90.56110309676245 63.72673966726951 C 0.0 **** -0.24
31642 H 10.951905758990222 91.45014371079368 64.06823326895203 H 0.0 **** 0.06
31643 H 10.800646844780914 89.70823475203164 63.734489238108054 H 0.0 **** 0.06
31644 H 12.321027269070186 90.36094852041055 64.39125044549522 H 0.0 **** 0.06
31645 H 11.84829626191754 90.72402420603558 62.71439967081244 H 0.0 **** 0.06
31646 C 67.99683560618863 32.33797170559171 25.35750618354018 C 0.0 **** -0.24
31647 H 67.0541749969659 32.68889176180414 24.937140075827983 H 0.0 **** 0.06
31648 H 68.80305493873422 32.524696032009615 24.6473195661942 H 0.0 **** 0.06
31649 H 67.92908841162755 31.268620618200316 25.558762617617845 H 0.0 **** 0.06
31650 H 68.19989649523436 32.87037190885292 26.287300201306323 H 0.0 **** 0.06
31651 C 115.90166296197532 18.49451069407391 12.155048187656888 C 0.0 **** -0.24
31652 H 116.8276668475512 18.88082291613003 12.581013243452503 H 0.0 **** 0.06
31653 H 115.35175629963868 19.310278064709195 11.683226240747146 H 0.0 **** 0.06
31654 H 115.2938962440382 18.055099015269406 12.945418033315292 H 0.0 **** 0.06
31655 H 116.13444352489614 17.73438230226111 11.409387684944164 H 0.0 **** 0.06
31656 C 62.99473364128673 115.71646588931861 60.27421231164925 C 0.0 **** -0.24
31657 H 63.758609942976136 115.38637538529491 60.97738351524353 H 0.0 **** 0.06
31658 H 63.306406937507816 116.65469326192272 59.81347616369234 H 0.0 **** 0.06
31659 H 62.05380884064246 115.86662440309377 60.804933120359806 H 0.0 **** 0.06
31660 H 62.859219741646214 114.95920597696772 59.50212296941699 H 0.0 **** 0.06
31661 C 68.63696176058767 7.889034318189545 60.13399378417603 C 0.0 **** -0.24
31662 H 69.08615280273614 6.902055127408744 60.253877736991114 H 0.0 **** 0.06
31663 H 69.23036555589238 8.625638772635057 60.67688644756754 H 0.0 **** 0.06
31664 H 67.62195990103123 7.876164305877182 60.52972485343889 H 0.0 **** 0.06
31665 H 68.61205194655508 8.149708093158893 59.07592373107923 H 0.0 **** 0.06
31666 C 63.86593246626458 11.507973419503244 1.9354482820348693 C 0.0 **** -0.24
31667 H 64.5198977920678 12.262499286185772 2.3741106776424914 H 0.0 **** 0.06
31668 H 63.4621281951638 10.874690753762707 2.7261193869675964 H 0.0 **** 0.06
31669 H 64.43475230347572 10.897057019346562 1.234957980533295 H 0.0 **** 0.06
31670 H 63.048246045423525 11.999664947297447 1.4091053583274373 H 0.0 **** 0.06
31671 C 48.61036252328506 41.48836274391772 84.18181302806846 C 0.0 **** -0.24
31672 H 49.18930551323453 42.393262918785936 83.99283595360515 H 0.0 **** 0.06
31673 H 49.28510920508478 40.63673562544291 84.26714007687627 H 0.0 **** 0.06
31674 H 47.9163271696182 41.322652485737734 83.35684715972496 H 0.0 **** 0.06
31675 H 48.05066081285125 41.603798744666165 85.11035495916832 H 0.0 **** 0.06
31676 C 16.915109067231867 61.10285012109091 21.79657618050564 C 0.0 **** -0.24
31677 H 16.298814702135587 61.46214351810312 20.972872942404322 H 0.0 **** 0.06
31678 H 16.886416880100256 61.82532361247678 22.612800058200378 H 0.0 **** 0.06
31679 H 17.94254432915099 60.98030385156795 21.45518974788004 H 0.0 **** 0.06
31680 H 16.531425144015515 60.14391427411664 22.146069082967088 H 0.0 **** 0.06
31681 C 113.03406923599728 106.43524799446519 61.35243093168113 C 0.0 **** -0.24
31682 H 112.37630476611018 105.97720812845682 62.09187396638576 H 0.0 **** 0.06
31683 H 112.76820233397335 107.48596221591333 61.23253087364499 H 0.0 **** 0.06
31684 H 112.91997206508107 105.91991545801523 60.39805268291863 H 0.0 **** 0.06
31685 H 114.06775888151358 106.35627506564788 61.68743314574566 H 0.0 **** 0.06
31686 C 56.84575423570783 35.22367231595081 77.3462484502146 C 0.0 **** -0.24
31687 H 56.447544991881614 36.19219514308389 77.04563171479333 H 0.0 **** 0.06
31688 H 56.49395282019765 34.98143438181566 78.34996215579554 H 0.0 **** 0.06
31689 H 57.93507944406605 35.261778280841185 77.34236519568464 H 0.0 **** 0.06
31690 H 56.50668585628574 34.458503077672106 76.64818956713583 H 0.0 **** 0.06
31691 C 86.37745517585981 114.43887308591735 100.65770307540171 C 0.0 **** -0.24
31692 H 85.71099869315962 114.2100338948552 99.82624536675186 H 0.0 **** 0.06
31693 H 85.87168448612232 114.22110621720299 101.59917279827735 H 0.0 **** 0.06
31694 H 86.64684195545759 115.49428761360923 100.62647080953752 H 0.0 **** 0.06
31695 H 87.27860703687064 113.83075932203064 100.58021426889945 H 0.0 **** 0.06
31696 C 114.68440129106611 41.89017660900572 9.71453533607442 C 0.0 **** -0.24
31697 H 114.03614013116872 41.03880120935719 9.921950262320848 H 0.0 **** 0.06
31698 H 115.46809423260561 41.94402536725386 10.470212012853523 H 0.0 **** 0.06
31699 H 114.09610184570587 42.80820457538886 9.735296788162913 H 0.0 **** 0.06
31700 H 115.13646820177581 41.771227537750065 8.72928600473557 H 0.0 **** 0.06
31701 C 57.79362368741613 94.54057138947888 45.775849197109636 C 0.0 **** -0.24
31702 H 58.08627402152706 95.56096511861028 46.02128333450194 H 0.0 **** 0.06
31703 H 58.40004445925092 93.84007413123436 46.35255896783056 H 0.0 **** 0.06
31704 H 57.94903427810695 94.36505279502646 44.71154599661823 H 0.0 **** 0.06
31705 H 56.741035502433135 94.39484450972665 46.018779945798734 H 0.0 **** 0.06
31706 C 22.544837627697238 2.530397447018199 112.48461326310121 C 0.0 **** -0.24
31707 H 22.89403032165852 3.421676500749161 111.96334973968362 H 0.0 **** 0.06
31708 H 21.5661373680287 2.7262423371938134 112.92425654356595 H 0.0 **** 0.06
31709 H 23.25190112278151 2.2697827550223586 113.27238084897868 H 0.0 **** 0.06
31710 H 22.4672816983202 1.7038881951073783 111.77846592017659 H 0.0 **** 0.06
31711 C 115.47157481329651 92.34737160760278 63.922118416244714 C 0.0 **** -0.24
31712 H 115.16063739755509 93.00991241440357 64.72946723806864 H 0.0 **** 0.06
31713 H 116.55963623124973 92.2961028005654 63.89365142440994 H 0.0 **** 0.06
31714 H 115.09941751770185 92.73202076370791 62.97274203706043 H 0.0 **** 0.06
31715 H 115.06554003280331 91.34962573032281 64.09449181212425 H 0.0 **** 0.06
31716 C 111.92459515799037 97.54180893245484 7.733882379837681 C 0.0 **** -0.24
31717 H 111.08608903910643 97.75264747498798 8.397209689848836 H 0.0 **** 0.06
31718 H 112.86083843667522 97.69623680816426 8.271572986520269 H 0.0 **** 0.06
31719 H 111.88499273444546 98.21101903368111 6.873791627010448 H 0.0 **** 0.06
31720 H 111.86750110886332 96.50822784682424 7.392615683550261 H 0.0 **** 0.06
31721 C 77.9317883262909 74.97223492452119 38.40903111089938 C 0.0 **** -0.24
31722 H 78.90617080741852 75.1149476022481 37.9403697173654 H 0.0 **** 0.06
31723 H 77.54308784172625 73.98783914191705 38.145748930142815 H 0.0 **** 0.06
31724 H 77.24385154817014 75.74126924245803 38.0578520179771 H 0.0 **** 0.06
31725 H 78.0360801764387 75.04399310014693 39.491914096333005 H 0.0 **** 0.06
31726 C 32.88369075129756 6.329784457169012 94.33634479132172 C 0.0 **** -0.24
31727 H 31.957966516132252 6.8275696254833065 94.04706613705449 H 0.0 **** 0.06
31728 H 32.88734753936501 6.170385531021736 95.41439819304566 H 0.0 **** 0.06
31729 H 33.73321568325167 6.952871864609506 94.0572068104482 H 0.0 **** 0.06
31730 H 32.95411977018611 5.369006426136821 93.82568352996053 H 0.0 **** 0.06
31731 C 0.5498289040652793 2.06143859323676 71.09297234227478 C 0.0 **** -0.24
31732 H 1.3807674470189397 1.9623744299832833 70.39345460230439 H 0.0 **** 0.06
31733 H -0.3436211774893536 1.6110527316567236 70.65977594461111 H 0.0 **** 0.06
31734 H 0.36537117388090223 3.116795254531091 71.29104090763221 H 0.0 **** 0.06
31735 H 0.7979696572213442 1.5532462700750624 72.02439235609899 H 0.0 **** 0.06
31736 C 21.90776723039062 85.4903759186213 24.91513693482795 C 0.0 **** -0.24
31737 H 21.648453296082522 85.44997383854638 25.97355488991238 H 0.0 **** 0.06
31738 H 22.927528216178132 85.85992626052067 24.805525561830024 H 0.0 **** 0.06
31739 H 21.220461551651283 86.16102853496395 24.39841981061187 H 0.0 **** 0.06
31740 H 21.834232681203133 84.49265035142925 24.484287975973857 H 0.0 **** 0.06
31741 C 70.24528740109787 113.26770823139438 54.71690477023002 C 0.0 **** -0.24
31742 H 70.55102816287285 112.33155563771683 54.24928260827432 H 0.0 **** 0.06
31743 H 70.746585817931 113.3729531366688 55.67890266267244 H 0.0 **** 0.06
31744 H 69.16550078767241 113.2628040810468 54.86721577689239 H 0.0 **** 0.06
31745 H 70.51831143490939 114.1016755337402 54.070984557196034 H 0.0 **** 0.06
31746 C 93.58026014872303 94.18604670896613 49.63388858122367 C 0.0 **** -0.24
31747 H 94.33593271727705 94.78695990714844 49.1292978811679 H 0.0 **** 0.06
31748 H 92.90322711049782 94.84075016700861 50.18310823908798 H 0.0 **** 0.06
31749 H 94.06507455191945 93.50032984629277 50.32830120811186 H 0.0 **** 0.06
31750 H 93.0161859930013 93.61665103840663 48.89544803005174 H 0.0 **** 0.06
31751 C 18.792077182982716 106.37228627109454 11.989042812094112 C 0.0 **** -0.24
31752 H 17.941840100872987 106.57994106238442 12.639702491741389 H 0.0 **** 0.06
31753 H 19.49881056042273 107.20106561480347 12.040698776908442 H 0.0 **** 0.06
31754 H 18.442954839418324 106.25601273773043 10.962075081059623 H 0.0 **** 0.06
31755 H 19.281566538833147 105.45470101645304 12.312967083163073 H 0.0 **** 0.06
31756 C 2.315278560580026 35.554514604747965 83.80638488012687 C 0.0 **** -0.24
31757 H 2.2227310532983324 36.593459923591524 83.4905603788759 H 0.0 **** 0.06
31758 H 2.8811173483800445 34.99652136322334 83.05967300800347 H 0.0 **** 0.06
31759 H 1.3225367566965218 35.11695679114894 83.91299369435154 H 0.0 **** 0.06
31760 H 2.8360211534725295 35.512228714572814 84.76376238711435 H 0.0 **** 0.06
31761 C 17.17558169213828 18.6562242494484 65.15539093976892 C 0.0 **** -0.24
31762 H 17.414805359804944 17.916752089672855 64.38971434925665 H 0.0 **** 0.06
31763 H 16.105517440304283 18.63134191563475 65.36260326677376 H 0.0 **** 0.06
31764 H 17.45481850815193 19.647934288310154 64.80078763672361 H 0.0 **** 0.06
31765 H 17.72830637584417 18.426914332463824 66.06582703109282 H 0.0 **** 0.06
31766 C 12.049299341277134 29.67861524985534 93.82468506151274 C 0.0 **** -0.24
31767 H 12.914801961469891 30.305612560646097 93.61328715945228 H 0.0 **** 0.06
31768 H 11.473398859245094 30.117768537734833 94.63967439520951 H 0.0 **** 0.06
31769 H 12.384137387020147 28.68169618954272 94.1114766770663 H 0.0 **** 0.06
31770 H 11.424597823338928 29.61032560394071 92.93409082717861 H 0.0 **** 0.06
31771 C 47.413290596548954 88.3088523593803 14.09276713223008 C 0.0 **** -0.24
31772 H 46.83686685629106 88.56515213524648 14.98248828710058 H 0.0 **** 0.06
31773 H 48.12882024627557 89.10341915978378 13.882333186054865 H 0.0 **** 0.06
31774 H 46.739261840405135 88.19276408442869 13.244871959648322 H 0.0 **** 0.06
31775 H 47.94732566005179 87.37375883755567 14.264223427001468 H 0.0 **** 0.06
31776 C 25.52188995881255 87.04353082448462 70.25826445132985 C 0.0 **** -0.24
31777 H 25.1194706360902 86.79468115120372 69.27625931459777 H 0.0 **** 0.06
31778 H 25.915245371401852 88.06003170437656 70.2429007789123 H 0.0 **** 0.06
31779 H 26.32224320013819 86.34678116555233 70.50926088245029 H 0.0 **** 0.06
31780 H 24.73078484244246 86.97026060364891 71.00404034503734 H 0.0 **** 0.06
31781 C 32.363316786203654 46.22564784358319 1.9725959892964546 C 0.0 **** -0.24
31782 H 31.933699707087214 45.65341865850781 1.1505987532145099 H 0.0 **** 0.06
31783 H 31.605360128988963 46.37813788567434 2.743105065492845 H 0.0 **** 0.06
31784 H 32.70589124109097 47.19254497035458 1.6037176143340819 H 0.0 **** 0.06
31785 H 33.2058148645132 45.67832093848843 2.3953533672630716 H 0.0 **** 0.06
31786 C 54.40968357392407 31.207741116298564 17.27854706368256 C 0.0 **** -0.24
31787 H 54.622474261867524 30.14998781651323 17.42866552319054 H 0.0 **** 0.06
31788 H 53.33171484387537 31.369327864812817 17.30913706960216 H 0.0 **** 0.06
31789 H 54.796333299376556 31.52169411845452 16.308399074089152 H 0.0 **** 0.06
31790 H 54.886462237411 31.790662484227454 18.065654589116683 H 0.0 **** 0.06
31791 C 8.116517422720804 22.293888960135263 80.47972115707162 C 0.0 **** -0.24
31792 H 7.22549373934055 22.896938998823856 80.65444379912972 H 0.0 **** 0.06
31793 H 8.822390018666255 22.85725473491408 79.86798548210615 H 0.0 **** 0.06
31794 H 7.838791647387765 21.37615794567006 79.96132774235247 H 0.0 **** 0.06
31795 H 8.580756759451532 22.045350201538895 81.43477767524047 H 0.0 **** 0.06
31796 C 9.149560508350149 78.46988239560432 101.55773753865445 C 0.0 **** -0.24
31797 H 8.146871828523153 78.79324213213783 101.27776707740163 H 0.0 **** 0.06
31798 H 9.288760516548365 78.60272511867083 102.63000879543443 H 0.0 **** 0.06
31799 H 9.886852285314962 79.06539957607134 101.0183687060681 H 0.0 **** 0.06
31800 H 9.27634932246448 77.41724249843358 101.30201214234476 H 0.0 **** 0.06
31801 C 52.353704185960254 85.94775469275439 64.38769089477546 C 0.0 **** -0.24
31802 H 51.46528646705053 86.5539885650013 64.56172521789992 H 0.0 **** 0.06
31803 H 52.393522921245165 85.65466159630972 63.33899627251169 H 0.0 **** 0.06
31804 H 52.31378081302486 85.05623691321654 65.0143381504399 H 0.0 **** 0.06
31805 H 53.24296763760947 86.5276211422414 64.63820050412761 H 0.0 **** 0.06
31806 C 82.25044974757861 90.56895564984566 42.27391299306937 C 0.0 **** -0.24
31807 H 82.07180599360905 89.7238325213007 41.60821792113993 H 0.0 **** 0.06
31808 H 83.2855810895366 90.5480118457499 42.61709240294357 H 0.0 **** 0.06
31809 H 81.58112760490873 90.50427938838715 43.13146204363885 H 0.0 **** 0.06
31810 H 82.0639714554721 91.49870971777659 41.736746580631404 H 0.0 **** 0.06
31811 C 100.01056186248786 66.41421905143284 23.949691420963887 C 0.0 **** -0.24
31812 H 100.39476010814838 66.75367189377995 22.98755418796732 H 0.0 **** 0.06
31813 H 100.77113523486844 65.81805306218277 24.454225693177136 H 0.0 **** 0.06
31814 H 99.11894198622917 65.80871715673857 23.792523025332642 H 0.0 **** 0.06
31815 H 99.75874700036547 67.27845088470984 24.564844412370945 H 0.0 **** 0.06
31816 C 37.74146187501643 27.342341263475525 87.53018599191331 C 0.0 **** -0.24
31817 H 38.35076228105913 28.20473763927008 87.7991042215458 H 0.0 **** 0.06
31818 H 36.923949993749716 27.661710455009562 86.88354682034822 H 0.0 **** 0.06
31819 H 37.33479943673248 26.889561590544396 88.43388324403688 H 0.0 **** 0.06
31820 H 38.356891774357194 26.612684000266725 87.0037195791466 H 0.0 **** 0.06
31821 C 59.15256580582303 98.26603645592888 54.476852026188396 C 0.0 **** -0.24
31822 H 59.93085507402833 98.89600041120394 54.90773227912524 H 0.0 **** 0.06
31823 H 58.19746936209248 98.49567017140095 54.949008441950525 H 0.0 **** 0.06
31824 H 59.399767581085484 97.21777297256511 54.64688599307874 H 0.0 **** 0.06
31825 H 59.08416872264064 98.45476768710614 53.40519772008014 H 0.0 **** 0.06
31826 C 102.17317693560871 65.92727811337647 88.76706616380389 C 0.0 **** -0.24
31827 H 101.82944730158295 66.93391679694508 89.00636114797123 H 0.0 **** 0.06
31828 H 102.67484510657704 65.49921405419201 89.63542773046163 H 0.0 **** 0.06
31829 H 102.8687456287322 65.9706377876795 87.92953310046369 H 0.0 **** 0.06
31830 H 101.31760380148833 65.30664559104054 88.49837021744457 H 0.0 **** 0.06
31831 C 71.62588936735744 75.90958953640495 84.4746448178702 C 0.0 **** -0.24
31832 H 72.19638533935029 75.13398552817449 84.985684275623 H 0.0 **** 0.06
31833 H 70.87896834922913 76.3189535957926 85.15554985566787 H 0.0 **** 0.06
31834 H 71.12758323731265 75.48002651329574 83.60467743137151 H 0.0 **** 0.06
31835 H 72.2990956900307 76.7035072569243 84.15301554497309 H 0.0 **** 0.06
31836 C 70.01809437666398 34.94339844567223 54.952627996052456 C 0.0 **** -0.24
31837 H 70.63613661188751 34.337558046606944 54.29091152248881 H 0.0 **** 0.06
31838 H 69.67059870095676 35.827371852822786 54.41672278404818 H 0.0 **** 0.06
31839 H 70.60621512864407 35.25066813545477 55.81779844965737 H 0.0 **** 0.06
31840 H 69.16023207556839 34.3584608540356 55.28544759103003 H 0.0 **** 0.06
31841 C 64.16635439318752 107.37040721218688 31.41562691646834 C 0.0 **** -0.24
31842 H 64.86082765258617 108.10428122450374 31.824841276619452 H 0.0 **** 0.06
31843 H 64.54269646108091 107.01111512448111 30.45713462471673 H 0.0 **** 0.06
31844 H 63.19033498175973 107.83355136461442 31.272082027823842 H 0.0 **** 0.06
31845 H 64.07357097926536 106.53288141731909 32.10706768600659 H 0.0 **** 0.06
31846 C 91.89582196487399 42.42176773410739 32.74161066267641 C 0.0 **** -0.24
31847 H 92.45639356887152 42.7724292243915 31.875153195961985 H 0.0 **** 0.06
31848 H 91.17341779204055 43.181830693834286 33.038787461335545 H 0.0 **** 0.06
31849 H 92.58375489013156 42.232213210446375 33.56671370694036 H 0.0 **** 0.06
31850 H 91.37189433009671 41.50093403214268 32.48686836747865 H 0.0 **** 0.06
31851 C 55.737564121830275 113.9118581254975 18.77754628752973 C 0.0 **** -0.24
31852 H 56.5973464093326 113.98750881467987 19.442666503526482 H 0.0 **** 0.06
31853 H 54.86929033515255 114.36976296070279 19.253013883831898 H 0.0 **** 0.06
31854 H 55.52713346822055 112.86211769157724 18.572203811292383 H 0.0 **** 0.06
31855 H 55.954265104893004 114.42852276941525 17.84321561050652 H 0.0 **** 0.06
31856 C 9.61608540346188 26.695078562418388 79.53936987369627 C 0.0 **** -0.24
31857 H 9.139980488412164 27.367011759793 78.82426601816104 H 0.0 **** 0.06
31858 H 9.056489362092918 26.70469582545971 80.4741363000283 H 0.0 **** 0.06
31859 H 10.638162783143457 27.02501182798187 79.72266571950098 H 0.0 **** 0.06
31860 H 9.628320888496631 25.68262696524357 79.1333886919499 H 0.0 **** 0.06
31861 C 106.63386132771359 25.310579187303595 94.33314984299972 C 0.0 **** -0.24
31862 H 106.23810353532039 25.69410184993537 93.39293142707439 H 0.0 **** 0.06
31863 H 107.45979341691202 25.94044785705435 94.66325010579368 H 0.0 **** 0.06
31864 H 106.98971465860478 24.290201607912657 94.18930764238678 H 0.0 **** 0.06
31865 H 105.84741464952208 25.31770558256371 95.08878498799544 H 0.0 **** 0.06
31866 C 107.70667245848972 62.117422384558864 2.2095086338034093 C 0.0 **** -0.24
31867 H 106.98505457010091 62.63307869078989 1.5758298857911655 H 0.0 **** 0.06
31868 H 107.52205008503108 62.374220558869695 3.2524327966055466 H 0.0 **** 0.06
31869 H 108.71539378376553 62.423429412906955 1.9327099305363618 H 0.0 **** 0.06
31870 H 107.60376369876917 61.040915640834726 2.0760637973695566 H 0.0 **** 0.06
31871 C 83.92454530886619 92.64934166546131 3.328459910489471 C 0.0 **** -0.24
31872 H 83.08581069964441 92.09579745477 3.751782095476017 H 0.0 **** 0.06
31873 H 84.67647309542426 92.81527116471406 4.10060861267786 H 0.0 **** 0.06
31874 H 83.57270879288251 93.60908896476981 2.951034819864873 H 0.0 **** 0.06
31875 H 84.36281866920262 92.07516079986203 2.5112314013444035 H 0.0 **** 0.06
31876 C 106.63481238158857 31.238603021311064 60.61748083309928 C 0.0 **** -0.24
31877 H 107.56630993003239 31.17946163284472 60.05468321624426 H 0.0 **** 0.06
31878 H 106.28211267324366 32.27069267098091 60.62745660672309 H 0.0 **** 0.06
31879 H 106.80558468847829 30.901792853398533 61.6392583042699 H 0.0 **** 0.06
31880 H 105.88543701455055 30.602977622982664 60.14557567699356 H 0.0 **** 0.06
31881 C 61.495965223232986 76.79889151584888 5.926939321835448 C 0.0 **** -0.24
31882 H 61.59934499965212 77.81096679567338 6.3200651098263165 H 0.0 **** 0.06
31883 H 60.49116464428715 76.43069632434947 6.134717247707613 H 0.0 **** 0.06
31884 H 62.22901367195257 76.14770544290855 6.402559124610832 H 0.0 **** 0.06
31885 H 61.663781166068816 76.8102180195666 4.849689995558833 H 0.0 **** 0.06
31886 C 113.30924618987791 39.355178964017966 31.532711197866824 C 0.0 **** -0.24
31887 H 113.63494449165184 39.17399639498575 30.508371873571647 H 0.0 **** 0.06
31888 H 112.25924254993934 39.64851935895882 31.53330175650305 H 0.0 **** 0.06
31889 H 113.90997526938641 40.15304483349948 31.96770326767337 H 0.0 **** 0.06
31890 H 113.43293511762259 38.44532440344602 32.119241016219235 H 0.0 **** 0.06
31891 C 55.43077609427135 97.95730738422873 25.749095926270698 C 0.0 **** -0.24
31892 H 55.22536445230155 98.3067241155216 24.73655672206445 H 0.0 **** 0.06
31893 H 54.499115553611375 97.90893196358422 26.312729676841343 H 0.0 **** 0.06
31894 H 56.11709531252151 98.6484296384991 26.238987288860343 H 0.0 **** 0.06
31895 H 55.88198196337021 96.96624127877493 25.706215091368563 H 0.0 **** 0.06
31896 C 72.51746806037141 35.97640722062283 77.80713840063152 C 0.0 **** -0.24
31897 H 73.22163594618237 35.94320576128732 78.63803476159636 H 0.0 **** 0.06
31898 H 73.05532093245634 36.19264707053637 76.88354096404336 H 0.0 **** 0.06
31899 H 71.77803966523248 36.7558129776491 77.98812681168843 H 0.0 **** 0.06
31900 H 72.01467240409326 35.012782135271976 77.71809995168711 H 0.0 **** 0.06
31901 C 32.935574815203545 56.943511145942196 111.65272706777525 C 0.0 **** -0.24
31902 H 32.95948876225809 58.03266138910391 111.65156420552623 H 0.0 **** 0.06
31903 H 33.80163647990819 56.56060420509277 111.11290763431293 H 0.0 **** 0.06
31904 H 32.023345119291264 56.599241733129446 111.16548164002809 H 0.0 **** 0.06
31905 H 32.95718403455164 56.58030788544343 112.6806847726178 H 0.0 **** 0.06
31906 C 88.97140863920862 76.13882532765872 93.31478282900721 C 0.0 **** -0.24
31907 H 88.06734968475187 76.37300750937123 93.87592238957711 H 0.0 **** 0.06
31908 H 88.9721860999469 76.69747555463412 92.37833212215969 H 0.0 **** 0.06
31909 H 88.99870258309254 75.06994349040019 93.09978447802791 H 0.0 **** 0.06
31910 H 89.84582475316464 76.41375317898732 93.90358468076846 H 0.0 **** 0.06
31911 C 47.841660791846095 12.444877840357353 46.76688211562026 C 0.0 **** -0.24
31912 H 48.46667725071865 13.165061386684059 47.29517810950725 H 0.0 **** 0.06
31913 H 47.468445152524055 11.702326427415034 47.472525841899 H 0.0 **** 0.06
31914 H 48.43012292587355 11.95068217788165 45.99477432745783 H 0.0 **** 0.06
31915 H 47.00027168442574 12.963937741185791 46.306275098893025 H 0.0 **** 0.06
31916 C 57.094042642407885 22.107562332751 44.79819225861115 C 0.0 **** -0.24
31917 H 56.44428674739987 21.290306556472956 45.11419531569288 H 0.0 **** 0.06
31918 H 58.1308159755672 21.770087046863637 44.80674119745436 H 0.0 **** 0.06
31919 H 56.97893015123162 22.94714621133511 45.48258212598756 H 0.0 **** 0.06
31920 H 56.821337143659036 22.41962760807496 43.79017861071219 H 0.0 **** 0.06
31921 C 24.316053161097116 41.56921501184914 109.85747898216746 C 0.0 **** -0.24
31922 H 24.61512001596995 42.27984046271462 110.62897112461494 H 0.0 **** 0.06
31923 H 25.177785050297985 41.3264390632888 109.23530008990649 H 0.0 **** 0.06
31924 H 23.53383363095074 42.0114765892296 109.23995497653077 H 0.0 **** 0.06
31925 H 23.938619522888146 40.6612366610006 110.32746163934769 H 0.0 **** 0.06
31926 C 2.7462901591647633 77.11391759019716 6.211826871262412 C 0.0 **** -0.24
31927 H 3.2514260021292785 78.04228351344398 6.480198070593197 H 0.0 **** 0.06
31928 H 3.419782433450413 76.49204693849015 5.621860246207541 H 0.0 **** 0.06
31929 H 1.8560934184145719 77.34242488863367 5.625346043621834 H 0.0 **** 0.06
31930 H 2.4580963568770144 76.58127513271677 7.118066296039702 H 0.0 **** 0.06
31931 C 85.83824268229716 33.027310449896035 41.429103247914604 C 0.0 **** -0.24
31932 H 86.24036718592475 32.015569117865304 41.36494725943944 H 0.0 **** 0.06
31933 H 86.64902138684863 33.72678008814558 41.636100226545025 H 0.0 **** 0.06
31934 H 85.1024510170493 33.07478589634315 42.23106658046289 H 0.0 **** 0.06
31935 H 85.3638763255658 33.28981951496822 40.483188274004746 H 0.0 **** 0.06
31936 C 33.095495056504646 18.37655518546451 107.58410626583391 C 0.0 **** -0.24
31937 H 33.32371859356542 17.9284116127681 108.55120497588035 H 0.0 **** 0.06
31938 H 32.93695017103204 17.58767743047332 106.8473104407199 H 0.0 **** 0.06
31939 H 33.92866684583174 19.005039268463747 107.26930300908789 H 0.0 **** 0.06
31940 H 32.193900416132806 18.98224581543235 107.66745756188419 H 0.0 **** 0.06
31941 C 7.398233965582023 97.51251772394863 39.697648262389066 C 0.0 **** -0.24
31942 H 7.497123825920966 98.24578496317636 40.4985006499013 H 0.0 **** 0.06
31943 H 6.381813026536065 97.54088786915196 39.3042728750155 H 0.0 **** 0.06
31944 H 7.6098700006291295 96.51722660708572 40.08900406104334 H 0.0 **** 0.06
31945 H 8.103821736191634 97.7480287398842 38.90204917312633 H 0.0 **** 0.06
31946 C 32.80114149514873 85.76119389752223 105.37573380600912 C 0.0 **** -0.24
31947 H 33.6199856358071 85.66609790254714 104.66278951353593 H 0.0 **** 0.06
31948 H 33.16590055384813 86.23666682861 106.28630389341237 H 0.0 **** 0.06
31949 H 32.41040607761829 84.77209105029763 105.6134182828821 H 0.0 **** 0.06
31950 H 32.00884632043022 86.36992326506082 104.93960367689317 H 0.0 **** 0.06
31951 C 82.94295226876781 94.76779671964022 78.83814804463566 C 0.0 **** -0.24
31952 H 82.77969348699975 94.78660227772288 79.91575858827599 H 0.0 **** 0.06
31953 H 83.04202102823504 95.78796863566947 78.46704400657336 H 0.0 **** 0.06
31954 H 82.09543722320993 94.28406051497849 78.35134710825622 H 0.0 **** 0.06
31955 H 83.85424083610886 94.21080129392222 78.6193083221649 H 0.0 **** 0.06
31956 C 103.60515056938273 65.50865197290483 26.458769937579746 C 0.0 **** -0.24
31957 H 104.2000843454664 65.60182766849312 27.36791552925206 H 0.0 **** 0.06
31958 H 102.65836843185643 66.03344594948089 26.58800013241637 H 0.0 **** 0.06
31959 H 103.41329769707802 64.45469252519825 26.256751295268373 H 0.0 **** 0.06
31960 H 104.15121219981657 65.94512825846621 25.62197441380357 H 0.0 **** 0.06
31961 C 102.9870171436425 97.09459117907207 39.7732194251946 C 0.0 **** -0.24
31962 H 102.03120142411132 96.64117460318339 39.51077844154878 H 0.0 **** 0.06
31963 H 103.56025275409789 96.40185228176723 40.38946151808108 H 0.0 **** 0.06
31964 H 102.81140215890224 98.0165805622682 40.32794146194007 H 0.0 **** 0.06
31965 H 103.54441921957391 97.3190916175308 38.8641869751703 H 0.0 **** 0.06
31966 C 68.71202132627056 64.75040118786355 109.34456312084798 C 0.0 **** -0.24
31967 H 68.25378771593218 63.86663769475443 109.78984018978109 H 0.0 **** 0.06
31968 H 68.67443500056696 64.67149539058072 108.25820144931663 H 0.0 **** 0.06
31969 H 69.75051771170497 64.82236854266426 109.66882775222447 H 0.0 **** 0.06
31970 H 68.16953399527895 65.63966737639349 109.6640105197787 H 0.0 **** 0.06
31971 C 20.049767184013888 97.28035433986659 110.84909004274061 C 0.0 **** -0.24
31972 H 19.208537546541805 96.67942888378364 111.1961100852363 H 0.0 **** 0.06
31973 H 19.701004747474116 98.00018842596832 110.1086596263249 H 0.0 **** 0.06
31974 H 20.79950988327255 96.62986682645113 110.40017873954767 H 0.0 **** 0.06
31975 H 20.48822796040588 97.81237302869789 111.69377984122725 H 0.0 **** 0.06
31976 C 75.22094249426988 61.74687207751859 49.06481044860388 C 0.0 **** -0.24
31977 H 74.40772085611593 61.634299040626686 49.78228133337227 H 0.0 **** 0.06
31978 H 75.3840988740431 62.80558970516067 48.86356301592263 H 0.0 **** 0.06
31979 H 74.9596185890021 61.23660067307476 48.137795098117095 H 0.0 **** 0.06
31980 H 76.13089862789928 61.3097321113261 49.47676078474206 H 0.0 **** 0.06
31981 C 103.17934742545998 32.32278066351796 89.7815876848519 C 0.0 **** -0.24
31982 H 104.16151954723688 32.66768544564286 89.45948036235274 H 0.0 **** 0.06
31983 H 102.54697646720786 32.16081319790919 88.90839120433981 H 0.0 **** 0.06
31984 H 102.7236600821787 33.074493744213584 90.42642415121435 H 0.0 **** 0.06
31985 H 103.28523360521649 31.388130266306206 90.3320550215006 H 0.0 **** 0.06
31986 C 79.86124149149117 10.273008950400879 70.21261842406182 C 0.0 **** -0.24
31987 H 80.18198240897311 11.312122488551935 70.2835891795703 H 0.0 **** 0.06
31988 H 78.78538490424432 10.23731003711842 70.03409422927746 H 0.0 **** 0.06
31989 H 80.09253646202131 9.757561289795106 71.14421911150004 H 0.0 **** 0.06
31990 H 80.38279236604302 9.787433220526509 69.38820990108604 H 0.0 **** 0.06
31991 C 21.60183758991576 12.821113191537606 56.23018336802646 C 0.0 **** -0.24
31992 H 21.467780946030132 12.729352583212318 55.15195917529332 H 0.0 **** 0.06
31993 H 22.056079902635247 13.786043136437883 56.458979722712826 H 0.0 **** 0.06
31994 H 22.251766128963197 12.020874476523986 56.584409929035914 H 0.0 **** 0.06
31995 H 20.632364572123947 12.748946181546955 56.72396833181274 H 0.0 **** 0.06
31996 C 3.7114467066291468 17.838325632373483 97.10095658671753 C 0.0 **** -0.24
31997 H 3.5381985461852423 18.86216244816984 97.43068486831379 H 0.0 **** 0.06
31998 H 4.7541847584521975 17.724146523877664 96.8035745447865 H 0.0 **** 0.06
31999 H 3.0653919213240215 17.616823525136567 96.25100445361727 H 0.0 **** 0.06
32000 H 3.4878101801384958 17.150479420694467 97.91558519608822 H 0.0 **** 0.06
32001 C 93.77448831558382 112.6574397622586 78.73498254723745 C 0.0 **** -0.24
32002 H 93.22979540189084 113.54883477848523 79.04456783919716 H 0.0 **** 0.06
32003 H 93.9012112852804 111.99367353407845 79.59016044105533 H 0.0 **** 0.06
32004 H 94.75321883848815 112.94558997338862 78.34986874702858 H 0.0 **** 0.06
32005 H 93.21495609336199 112.14204338280607 77.95417345800587 H 0.0 **** 0.06
32006 C 103.01871003504931 54.98201375617087 24.999093934726204 C 0.0 **** -0.24
32007 H 102.94282440111823 54.39300727997102 25.912274206868602 H 0.0 **** 0.06
32008 H 103.82977263106693 55.70358733406913 25.09915198736158 H 0.0 **** 0.06
32009 H 102.08094975141137 55.51022837478472 24.828013553465013 H 0.0 **** 0.06
32010 H 103.22297600449272 54.320155224158206 24.15683903719355 H 0.0 **** 0.06
32011 C 36.417732024001396 17.233906143979453 93.20143015448394 C 0.0 **** -0.24
32012 H 36.967636608535 16.429957430239966 93.68872765994303 H 0.0 **** 0.06
32013 H 37.11748498851534 17.892386718841976 92.68604222363084 H 0.0 **** 0.06
32014 H 35.86725299150618 17.803789658954543 93.95111093033438 H 0.0 **** 0.06
32015 H 35.71915912016502 16.81079434429904 92.4808062885582 H 0.0 **** 0.06
32016 C 97.26749588100279 93.68150161812787 2.9953515890644695 C 0.0 **** -0.24
32017 H 96.3841262653072 93.0903054804669 3.2393062467348983 H 0.0 **** 0.06
32018 H 98.10922165005809 93.34433509452464 3.6002995385985486 H 0.0 **** 0.06
32019 H 97.06886246195165 94.73276649326436 3.2019125595569875 H 0.0 **** 0.06
32020 H 97.50627518179436 93.55791327468643 1.938376187407954 H 0.0 **** 0.06
32021 C 6.019120346367316 27.302045628720833 93.26691316282711 C 0.0 **** -0.24
32022 H 5.123806457165614 26.76766667420293 93.58424849416767 H 0.0 **** 0.06
32023 H 6.00735678109379 27.41987494162035 92.18323265558442 H 0.0 **** 0.06
32024 H 6.903040755324241 26.736046161870377 93.56147705639239 H 0.0 **** 0.06
32025 H 6.043113952625532 28.28430335804194 93.73915847229972 H 0.0 **** 0.06
32026 C 1.167687828506729 102.16430463224253 0.9329156885910947 C 0.0 **** -0.24
32027 H 1.8722329084567662 101.4250863751841 0.5514760925252205 H 0.0 **** 0.06
32028 H 0.7391558434948138 101.80625892280898 1.8698720664883837 H 0.0 **** 0.06
32029 H 0.3723307739198418 102.31799440536258 0.20387581223857865 H 0.0 **** 0.06
32030 H 1.6885855443228621 103.10544241295156 1.1072451619720454 H 0.0 **** 0.06
32031 C 101.80427266289195 9.616728050571155 61.23331734315417 C 0.0 **** -0.24
32032 H 101.07291897699957 9.712324285632377 62.035246668922525 H 0.0 **** 0.06
32033 H 102.49602308254225 8.807047216746824 61.46663233006586 H 0.0 **** 0.06
32034 H 102.35803025714233 10.550760839337627 61.13353316251079 H 0.0 **** 0.06
32035 H 101.29139667983793 9.397819315255148 60.29732285288861 H 0.0 **** 0.06
32036 C 46.85257907756426 80.4787776826197 40.430242547899155 C 0.0 **** -0.24
32037 H 46.918262473220494 80.18638463172454 41.47676458492461 H 0.0 **** 0.06
32038 H 47.15727630827925 81.52041281825024 40.32337598614495 H 0.0 **** 0.06
32039 H 45.82484708781149 80.36392111296436 40.08497814209457 H 0.0 **** 0.06
32040 H 47.50830528500154 79.8447672443703 39.833357746833855 H 0.0 **** 0.06
32041 C 50.95017311392843 67.97094631700571 52.69971097605359 C 0.0 **** -0.24
32042 H 50.287762392264085 68.77499616109111 52.37751616769731 H 0.0 **** 0.06
32043 H 50.99969813230433 67.95714044754328 53.78928764721704 H 0.0 **** 0.06
32044 H 51.94755900931784 68.13752700673268 52.29296191800008 H 0.0 **** 0.06
32045 H 50.565172976546876 67.01712105994392 52.34073777757315 H 0.0 **** 0.06
32046 C 73.8876523440445 46.693875699378594 109.61966352797894 C 0.0 **** -0.24
32047 H 74.16745400455042 47.60523518023392 110.1481741583883 H 0.0 **** 0.06
32048 H 74.20983563768962 46.76302934955075 108.58083908106201 H 0.0 **** 0.06
32049 H 72.80532398119938 46.57000851292875 109.65807964205453 H 0.0 **** 0.06
32050 H 74.3674460716336 45.83714531837717 110.09394682516799 H 0.0 **** 0.06
32051 C 38.51645053903981 115.61008012605367 27.745919155036233 C 0.0 **** -0.24
32052 H 38.81309475408665 115.66372367366715 28.792399452920108 H 0.0 **** 0.06
32053 H 38.44326631274987 116.61753185104627 27.33596957231498 H 0.0 **** 0.06
32054 H 37.5490867218808 115.11336298480892 27.666496725842507 H 0.0 **** 0.06
32055 H 39.261825765346885 115.0437459795791 27.18598071197806 H 0.0 **** 0.06
32056 C 34.03234474920714 3.592398609591406 80.69845910576615 C 0.0 **** -0.24
32057 H 35.10947099444682 3.514724997449809 80.84148125642238 H 0.0 **** 0.06
32058 H 33.76243411378752 4.634907174156153 80.52567954414619 H 0.0 **** 0.06
32059 H 33.52028480373659 3.227852892823595 81.58915411852564 H 0.0 **** 0.06
32060 H 33.73451596250587 2.9922759663626017 79.83843096466347 H 0.0 **** 0.06
32061 C 46.01764476372071 35.2194563178015 58.558641520570575 C 0.0 **** -0.24
32062 H 46.17235241923589 34.415918811844676 59.27770305462391 H 0.0 **** 0.06
32063 H 44.95313721133766 35.44117180452338 58.48544012245847 H 0.0 **** 0.06
32064 H 46.39311331018216 34.91131198308477 57.582814180573905 H 0.0 **** 0.06
32065 H 46.55294109659323 36.11045374341555 58.88853247640981 H 0.0 **** 0.06
32066 C 92.9524061540045 44.52460053724179 91.65135656415342 C 0.0 **** -0.24
32067 H 92.3278700076686 43.754095453823666 91.19959771718173 H 0.0 **** 0.06
32068 H 92.34264108487753 45.4006006060316 91.87516688801584 H 0.0 **** 0.06
32069 H 93.74605213560551 44.80153331134474 90.957080771651 H 0.0 **** 0.06
32070 H 93.39251471498466 44.14266793126426 92.5723741960876 H 0.0 **** 0.06
32071 C 72.11009139933866 20.01082949445843 85.17693172244405 C 0.0 **** -0.24
32072 H 72.4847757200609 19.842102755008963 84.16767285335908 H 0.0 **** 0.06
32073 H 72.87003848966171 19.716318163570755 85.90052279143477 H 0.0 **** 0.06
32074 H 71.20951057021784 19.4165888360358 85.33361228646936 H 0.0 **** 0.06
32075 H 71.87483480001598 21.067602701479288 85.30570015532477 H 0.0 **** 0.06
32076 C 21.693645080294147 69.29727971128659 67.66938217762534 C 0.0 **** -0.24
32077 H 20.8447215956418 69.96810886221743 67.80279410794098 H 0.0 **** 0.06
32078 H 22.60512133920338 69.79630707711942 67.99741149483262 H 0.0 **** 0.06
32079 H 21.78328110557834 69.02992919315949 66.61689864421936 H 0.0 **** 0.06
32080 H 21.540067143675458 68.39477794198112 68.26186338940698 H 0.0 **** 0.06
32081 C 13.302174389649025 45.362917748585915 89.1306977052306 C 0.0 **** -0.24
32082 H 14.233981557654843 45.80905295852966 88.78371599504493 H 0.0 **** 0.06
32083 H 13.135363419862838 44.41952876412462 88.61015960253559 H 0.0 **** 0.06
32084 H 12.475411058231 46.04314846049684 88.92541706084342 H 0.0 **** 0.06
32085 H 13.364745496087671 45.180397098242025 90.20311673620245 H 0.0 **** 0.06
32086 C 49.74330695942626 11.954767957782515 60.746767960033594 C 0.0 **** -0.24
32087 H 50.11600861025181 12.724225773997915 60.070363698545634 H 0.0 **** 0.06
32088 H 48.77752594338227 11.596341558422964 60.39135965095926 H 0.0 **** 0.06
32089 H 49.63091584673066 12.37528419976207 61.74643136407798 H 0.0 **** 0.06
32090 H 50.45008544449186 11.12567960459485 60.77842581410556 H 0.0 **** 0.06
32091 C 52.52830301348797 92.04083993588557 107.08768817187934 C 0.0 **** -0.24
32092 H 53.36742786932359 91.43456750358952 106.74645984648538 H 0.0 **** 0.06
32093 H 52.88435333521227 93.03579328209815 107.35438752703203 H 0.0 **** 0.06
32094 H 52.072166695847045 91.57220143871244 107.95978402686112 H 0.0 **** 0.06
32095 H 51.790031402929344 92.12038009237997 106.28963431672884 H 0.0 **** 0.06
32096 C 27.369583492305118 89.82867689462948 61.73311465237157 C 0.0 **** -0.24
32097 H 28.09921103506803 89.9977336552831 62.524714920328506 H 0.0 **** 0.06
32098 H 26.629463360334036 90.62862590000518 61.74565734038424 H 0.0 **** 0.06
32099 H 26.87436041385712 88.87098099300027 61.894859032001705 H 0.0 **** 0.06
32100 H 27.876250493737842 89.81661512558253 60.768464157114806 H 0.0 **** 0.06
32101 C 80.78601971844472 76.32686227676066 69.65068796333884 C 0.0 **** -0.24
32102 H 80.56788767477103 75.74533840474624 70.5472285555444 H 0.0 **** 0.06
32103 H 81.86244044090407 76.48413799029214 69.5733807467642 H 0.0 **** 0.06
32104 H 80.28131387156276 77.29086574686858 69.71183412380788 H 0.0 **** 0.06
32105 H 80.43217645029438 75.7869845288069 68.77252596339792 H 0.0 **** 0.06
32106 C 52.92001568107289 9.68958093998225 47.74189564058713 C 0.0 **** -0.24
32107 H 53.205482147334095 10.546401532713887 47.13184899905382 H 0.0 **** 0.06
32108 H 52.108513957006316 9.974243728843135 48.41110828499007 H 0.0 **** 0.06
32109 H 53.77765319241035 9.360289177957696 48.328644647489014 H 0.0 **** 0.06
32110 H 52.588968151736324 8.877051240531458 47.09472440759307 H 0.0 **** 0.06
32111 C 1.2265718936932757 48.97894211163711 48.39246600650537 C 0.0 **** -0.24
32112 H 0.919203360175203 49.989876971558175 48.660392966871 H 0.0 **** 0.06
32113 H 0.356671408520441 48.32294783797903 48.392857697835396 H 0.0 **** 0.06
32114 H 1.9551718004663883 48.617501461507544 49.117208932985235 H 0.0 **** 0.06
32115 H 1.6757431938664666 48.988370734442114 47.39898986680387 H 0.0 **** 0.06
32116 C 17.712752726891637 83.43393390835809 86.10713655423615 C 0.0 **** -0.24
32117 H 17.869974483735874 84.23382596238048 86.83146772000893 H 0.0 **** 0.06
32118 H 17.457868208785996 83.86636080343055 85.13895243573484 H 0.0 **** 0.06
32119 H 16.898383007809297 82.79338714878361 86.44497429168877 H 0.0 **** 0.06
32120 H 18.62459435794869 82.84429947577735 86.01433241043472 H 0.0 **** 0.06
32121 C 17.84786877507986 41.57248835480335 62.14735506607997 C 0.0 **** -0.24
32122 H 18.244966074732105 42.3996883758877 61.55758773164882 H 0.0 **** 0.06
32123 H 17.70080314156027 41.89957564526235 63.17683511803813 H 0.0 **** 0.06
32124 H 18.552297531273894 40.74092574340796 62.12722285336616 H 0.0 **** 0.06
32125 H 16.895043618464797 41.251521468686924 61.72728841616947 H 0.0 **** 0.06
32126 C 56.10249611607024 4.434023915049266 27.040352041551984 C 0.0 **** -0.24
32127 H 56.41077629828803 5.283884491524162 27.64903657933629 H 0.0 **** 0.06
32128 H 55.115407827183674 4.099123608760522 27.358273445292284 H 0.0 **** 0.06
32129 H 56.81909847157293 3.6212414438471114 27.162168798417277 H 0.0 **** 0.06
32130 H 56.065444919193055 4.731622529571496 25.992560167805905 H 0.0 **** 0.06
32131 C 84.55797769796065 67.32551451134748 16.14360651842837 C 0.0 **** -0.24
32132 H 84.58417510013778 67.32239466069717 15.054215642419337 H 0.0 **** 0.06
32133 H 83.81412841708764 68.04410155436096 16.487486517007166 H 0.0 **** 0.06
32134 H 85.53949918157102 67.60415856110234 16.52948956928212 H 0.0 **** 0.06
32135 H 84.29600219376613 66.32987723689735 16.502944605541632 H 0.0 **** 0.06
32136 C 10.74259287008553 67.99068070841543 82.27868105176299 C 0.0 **** -0.24
32137 H 10.905227715980544 68.0765830420091 83.35263086374465 H 0.0 **** 0.06
32138 H 9.84449476011153 68.54436850750574 82.00182683639036 H 0.0 **** 0.06
32139 H 10.618727786409693 66.94069752755274 82.01365593626929 H 0.0 **** 0.06
32140 H 11.601131038181279 68.40074660253762 81.74712887865638 H 0.0 **** 0.06
32141 C 65.32337314987038 97.3391391464624 91.16139811174838 C 0.0 **** -0.24
32142 H 64.80716215285949 97.37182252370668 90.20305504378132 H 0.0 **** 0.06
32143 H 65.64087341265407 96.31642354226412 91.36869505451517 H 0.0 **** 0.06
32144 H 64.64937328443244 97.67713453140057 91.9490737451431 H 0.0 **** 0.06
32145 H 66.19656239463322 97.99070269043696 91.12690101349244 H 0.0 **** 0.06
32146 C 48.5601481793808 69.52691530686315 41.89070252039501 C 0.0 **** -0.24
32147 H 47.63716357661377 69.76884474034148 42.41673110467082 H 0.0 **** 0.06
32148 H 48.58489706892459 70.05792868708937 40.93790560194896 H 0.0 **** 0.06
32149 H 48.604282968614854 68.45312777956048 41.709459577199816 H 0.0 **** 0.06
32150 H 49.41450150489712 69.82890160688555 42.49743581321744 H 0.0 **** 0.06
32151 C 75.1940511794344 11.277760070710016 99.16071087604311 C 0.0 **** -0.24
32152 H 75.86168788524431 11.448306835232273 100.00545024517075 H 0.0 **** 0.06
32153 H 75.12039351357927 12.18792868233757 98.56592589614539 H 0.0 **** 0.06
32154 H 74.2051845204253 11.003057676699882 99.52945868590692 H 0.0 **** 0.06
32155 H 75.58902999124865 10.469914224575717 98.54477145072602 H 0.0 **** 0.06
32156 C 58.52605213982301 55.58050289302324 68.85303235224441 C 0.0 **** -0.24
32157 H 58.214593087434196 54.81799380557203 69.56694390420932 H 0.0 **** 0.06
32158 H 59.40652225642246 55.23306104357735 68.31195738197931 H 0.0 **** 0.06
32159 H 58.765784958396196 56.50095043076038 69.38551152303381 H 0.0 **** 0.06
32160 H 57.716213371044034 55.76911713073903 68.14761301255203 H 0.0 **** 0.06
32161 C 54.309790477996955 48.771309240601454 10.603251545081587 C 0.0 **** -0.24
32162 H 55.278899261157704 48.48342907299637 11.01202628601515 H 0.0 **** 0.06
32163 H 53.521504778471325 48.47743527891939 11.296321746937124 H 0.0 **** 0.06
32164 H 54.15688963403255 48.27263033961495 9.64638049071679 H 0.0 **** 0.06
32165 H 54.282939235993496 49.850832072865344 10.458434555681968 H 0.0 **** 0.06
32166 C 27.09367200046369 4.5890653486546 37.37678410255729 C 0.0 **** -0.24
32167 H 27.489011650453705 3.581836924660095 37.23963781940924 H 0.0 **** 0.06
32168 H 26.087158559487627 4.530125561644184 37.790558592917236 H 0.0 **** 0.06
32169 H 27.06262333472607 5.100605977711055 36.41526672603673 H 0.0 **** 0.06
32170 H 27.736726076602878 5.140821552338366 38.06192646698785 H 0.0 **** 0.06
32171 C 68.75220641344448 71.55131378814445 41.47069752864331 C 0.0 **** -0.24
32172 H 67.8180592061398 71.70934009307337 42.00865121934086 H 0.0 **** 0.06
32173 H 68.80831625165666 70.5146716814391 41.13631381607067 H 0.0 **** 0.06
32174 H 69.5925710703241 71.76604503264139 42.12977203928176 H 0.0 **** 0.06
32175 H 68.78932612144875 72.21426757408187 40.606096477751294 H 0.0 **** 0.06
32176 C 88.35432271317075 115.45137395669906 12.321467917750738 C 0.0 **** -0.24
32177 H 89.10774539324154 115.88826894576306 11.667075442966961 H 0.0 **** 0.06
32178 H 87.40468402502421 115.96734043483848 12.177403527259969 H 0.0 **** 0.06
32179 H 88.6702041872831 115.55485196468857 13.360159316720654 H 0.0 **** 0.06
32180 H 88.23465724713427 114.39503448150609 12.081233384055253 H 0.0 **** 0.06
32181 C 3.7541075786162104 38.29063814394135 101.64272307500497 C 0.0 **** -0.24
32182 H 4.443654660984858 38.200893779472835 102.48152535708508 H 0.0 **** 0.06
32183 H 2.8850224087631062 37.65610875522776 101.8166224159959 H 0.0 **** 0.06
32184 H 4.254547125054829 37.9781387465074 100.72598594592124 H 0.0 **** 0.06
32185 H 3.4336455326396376 39.327703262178204 101.5451087805056 H 0.0 **** 0.06
32186 C 115.14116313114944 64.81200999406599 73.33062411530284 C 0.0 **** -0.24
32187 H 115.99044496541545 64.1295828474722 73.32307100384025 H 0.0 **** 0.06
32188 H 114.5833465418045 64.68812531790601 74.25915511986616 H 0.0 **** 0.06
32189 H 114.49031860201342 64.5917342549763 72.48358595997814 H 0.0 **** 0.06
32190 H 115.49903766780152 65.83880054339488 73.25504278830786 H 0.0 **** 0.06
32191 C 15.42461061487775 107.14482709183187 82.24343519827129 C 0.0 **** -0.24
32192 H 14.631842787154596 106.40312350295574 82.15057260079833 H 0.0 **** 0.06
32193 H 15.926584706921858 107.26344695337554 81.28269176275937 H 0.0 **** 0.06
32194 H 16.14513605884747 106.8135932417265 82.99152329358768 H 0.0 **** 0.06
32195 H 14.9956286825809 108.0990564722481 82.55014903349743 H 0.0 **** 0.06
32196 C 2.3252818608974195 38.71380814013463 94.21603083203729 C 0.0 **** -0.24
32197 H 2.638327357980529 39.61887044603088 94.73645497268521 H 0.0 **** 0.06
32198 H 3.203558868262647 38.11469227505046 93.97009306389354 H 0.0 **** 0.06
32199 H 1.801513276092507 38.98506672226961 93.2995687274658 H 0.0 **** 0.06
32200 H 1.660027476858616 38.13733295032222 94.85843061689728 H 0.0 **** 0.06
32201 C 42.85641434030428 67.4799763971956 93.87233943553997 C 0.0 **** -0.24
32202 H 41.989850965533634 68.01039446790561 94.26729405459525 H 0.0 **** 0.06
32203 H 43.29561949912443 66.86532944587297 94.65845109410165 H 0.0 **** 0.06
32204 H 43.59365763867018 68.20155079273114 93.51870497687048 H 0.0 **** 0.06
32205 H 42.54489304053723 66.84310318953824 93.04345847790546 H 0.0 **** 0.06
32206 C 78.86866516458808 88.05245101667732 14.372783128835877 C 0.0 **** -0.24
32207 H 78.58540059757152 89.047191498662 14.71664517417311 H 0.0 **** 0.06
32208 H 79.89712301148877 88.07178708814686 14.01120717643164 H 0.0 **** 0.06
32209 H 78.20447305084284 87.74453478780583 13.564319728314416 H 0.0 **** 0.06
32210 H 78.78766399844899 87.34629069209464 15.198960436424272 H 0.0 **** 0.06
32211 C 21.09262463028253 108.22842143682863 72.67928716366367 C 0.0 **** -0.24
32212 H 20.147909596768955 107.86006768424531 73.07884136044616 H 0.0 **** 0.06
32213 H 21.565646025406878 107.44504222555054 72.08652973898208 H 0.0 **** 0.06
32214 H 21.749811359266644 108.50813310690457 73.50273633916343 H 0.0 **** 0.06
32215 H 20.906555581813706 109.09926917166416 72.05111277902157 H 0.0 **** 0.06
32216 C 94.35782262237339 71.4154877273213 103.49213004288161 C 0.0 **** -0.24
32217 H 94.0624819791347 72.25056828281299 104.12598635571044 H 0.0 **** 0.06
32218 H 94.79724920707173 71.79744250382976 102.5700804565495 H 0.0 **** 0.06
32219 H 93.48141292158569 70.81213295689918 103.2546250190284 H 0.0 **** 0.06
32220 H 95.08944100458781 70.80173358281445 104.01712329730168 H 0.0 **** 0.06
32221 C 91.43708176215523 16.214961608568814 2.7371144416871402 C 0.0 **** -0.24
32222 H 90.65263118933348 16.501331722548997 2.0365846340994267 H 0.0 **** 0.06
32223 H 92.32071420425325 16.83086735830446 2.5651625284932607 H 0.0 **** 0.06
32224 H 91.69129502263104 15.16545008787486 2.5881857665825123 H 0.0 **** 0.06
32225 H 91.08448061039013 16.36223350639935 3.757355051575189 H 0.0 **** 0.06
32226 C 91.010755600185 68.60316083638071 78.29409795586909 C 0.0 **** -0.24
32227 H 91.31594791463891 69.15339450219375 79.18437046474352 H 0.0 **** 0.06
32228 H 90.21819123831915 69.15066216570307 77.7827852803687 H 0.0 **** 0.06
32229 H 90.64360207868316 67.61873307855763 78.58477105710907 H 0.0 **** 0.06
32230 H 91.86446309418324 68.49067189674128 77.62637850672957 H 0.0 **** 0.06
32231 C 8.466442367969293 113.00589558573465 53.767159127085705 C 0.0 **** -0.24
32232 H 8.988385858240875 112.62547748003922 54.64509682500898 H 0.0 **** 0.06
32233 H 7.435566339281053 113.24182516803725 54.03080924963882 H 0.0 **** 0.06
32234 H 8.477942430334693 112.24988431833407 52.98242208077062 H 0.0 **** 0.06
32235 H 8.965748801331728 113.90788231152452 53.41083527747787 H 0.0 **** 0.06
32236 C 6.45821771964529 91.99905808867155 25.640652752543303 C 0.0 **** -0.24
32237 H 5.778520787625979 91.75265160610765 24.82385989036402 H 0.0 **** 0.06
32238 H 6.906185430772567 92.9758496972392 25.456436376580427 H 0.0 **** 0.06
32239 H 7.241668035795868 91.24480098989241 25.701564893133195 H 0.0 **** 0.06
32240 H 5.903610198407705 92.02480538490936 26.57928270898168 H 0.0 **** 0.06
32241 C 73.03767565052738 17.1804015525168 15.074505882139817 C 0.0 **** -0.24
32242 H 72.21886279886742 17.501501591885443 14.431599385224217 H 0.0 **** 0.06
32243 H 73.12699236382366 16.094820923511747 15.03365519748101 H 0.0 **** 0.06
32244 H 72.83639758857214 17.4901019673907 16.100688335274157 H 0.0 **** 0.06
32245 H 73.96689693123001 17.6351392123687 14.733340317131223 H 0.0 **** 0.06
32246 C 101.77139979498202 17.61357449839221 42.420151684579366 C 0.0 **** -0.24
32247 H 101.34943874764201 16.613637805992823 42.3265730596039 H 0.0 **** 0.06
32248 H 102.81236164009448 17.540384183625093 42.73751938726065 H 0.0 **** 0.06
32249 H 101.205001212485 18.17904233192158 43.15961114052442 H 0.0 **** 0.06
32250 H 101.71962051996917 18.121367795410862 41.45745527148148 H 0.0 **** 0.06
32251 C 10.806178251421116 82.75491747411387 24.3114605863899 C 0.0 **** -0.24
32252 H 9.943118840065182 83.21578704896422 23.830195289206102 H 0.0 **** 0.06
32253 H 11.310978292471006 83.49239235868579 24.934492846187368 H 0.0 **** 0.06
32254 H 11.493782783242494 82.38922433737908 23.549153518603845 H 0.0 **** 0.06
32255 H 10.473116193600134 81.92178816286774 24.930281047573885 H 0.0 **** 0.06
32256 C 85.12777189418529 27.913733366773883 41.700453097171305 C 0.0 **** -0.24
32257 H 85.81946151817749 27.994392391108384 42.53917901008214 H 0.0 **** 0.06
32258 H 84.32475401810859 28.64070298637514 41.821374592471074 H 0.0 **** 0.06
32259 H 84.70778089392297 26.908850180646795 41.67147319623615 H 0.0 **** 0.06
32260 H 85.66087348903716 28.11190933016752 40.770772768943345 H 0.0 **** 0.06
32261 C 55.47289928131602 61.51988529040722 32.64506232504049 C 0.0 **** -0.24
32262 H 55.785726914536156 61.801591867834134 33.65000449993214 H 0.0 **** 0.06
32263 H 55.904909856361996 60.55183750743771 32.388792970293196 H 0.0 **** 0.06
32264 H 55.81606367012989 62.27122428474897 31.93404934666662 H 0.0 **** 0.06
32265 H 54.38546019283319 61.453888373977776 32.60870031709034 H 0.0 **** 0.06
32266 C 58.204425370880074 101.18558642302874 42.96021711863801 C 0.0 **** -0.24
32267 H 58.165161475210596 100.63021190780708 43.89783223447574 H 0.0 **** 0.06
32268 H 58.821421524439415 102.07502503949381 43.090989029789114 H 0.0 **** 0.06
32269 H 57.196098487177494 101.48067742322532 42.67102563657539 H 0.0 **** 0.06
32270 H 58.63558401303811 100.55478383368144 42.1827443651469 H 0.0 **** 0.06
32271 C 72.76005119299724 67.87669002780397 85.12244089768524 C 0.0 **** -0.24
32272 H 73.04216963486667 67.8043538460528 84.0720080235377 H 0.0 **** 0.06
32273 H 73.15552785416035 68.8029053378997 85.54159369784836 H 0.0 **** 0.06
32274 H 73.16947740577285 67.02629571580944 85.66720434554964 H 0.0 **** 0.06
32275 H 71.67354713197027 67.87406836206584 85.20696060046572 H 0.0 **** 0.06
32276 C 72.0277846553322 36.36810448033769 6.104898929285156 C 0.0 **** -0.24
32277 H 72.4630665993787 35.3754263183222 6.222509662905509 H 0.0 **** 0.06
32278 H 71.94134488160935 36.84521184757574 7.080746888158572 H 0.0 **** 0.06
32279 H 71.03836560556284 36.27930442970225 5.655593817290125 H 0.0 **** 0.06
32280 H 72.66723585152745 36.97107721516436 5.459411779021224 H 0.0 **** 0.06
32281 C 12.915182145134601 42.006224878011864 58.458169414446076 C 0.0 **** -0.24
32282 H 13.781938669726838 42.661793657717794 58.54389147913946 H 0.0 **** 0.06
32283 H 12.01428672928306 42.5596310532967 58.724386704225395 H 0.0 **** 0.06
32284 H 13.032937876805217 41.1577352316468 59.13275929399184 H 0.0 **** 0.06
32285 H 12.831441564183049 41.645883139241874 57.43304167595004 H 0.0 **** 0.06
32286 C 69.9961548358857 23.573237885577456 50.696169583391054 C 0.0 **** -0.24
32287 H 69.92137668255793 24.452809736678006 51.33414296468999 H 0.0 **** 0.06
32288 H 70.4254934891348 23.857704044077963 49.734816393148265 H 0.0 **** 0.06
32289 H 69.00289949737765 23.152113750088404 50.53946964945686 H 0.0 **** 0.06
32290 H 70.63411423570841 22.829914714575665 51.17336972253935 H 0.0 **** 0.06
32291 C 106.53325489195059 37.09589291620557 108.42827686124912 C 0.0 **** -0.24
32292 H 106.11094256666969 36.36585973608422 107.73833167103317 H 0.0 **** 0.06
32293 H 106.04797383009537 36.999313692450556 109.40016953664136 H 0.0 **** 0.06
32294 H 106.37114187282589 38.10046927065048 108.0389862132159 H 0.0 **** 0.06
32295 H 107.60341549398692 36.915847809055975 108.53682950112275 H 0.0 **** 0.06
32296 C 21.517406956670072 86.47962362518757 90.38365395514296 C 0.0 **** -0.24
32297 H 20.812739445944658 86.99625362611613 89.731116016091 H 0.0 **** 0.06
32298 H 22.438100209690134 87.05846972706354 90.45320716074303 H 0.0 **** 0.06
32299 H 21.738114033792442 85.4945584074539 89.97139613616548 H 0.0 **** 0.06
32300 H 21.079938096566508 86.36960232387935 91.37553389683899 H 0.0 **** 0.06
32301 C 40.02952677254985 102.90369722354683 11.915795873354284 C 0.0 **** -0.24
32302 H 39.83246857437809 102.72217506795164 12.971973075170354 H 0.0 **** 0.06
32303 H 40.702029341588506 103.75587660287351 11.812397544645194 H 0.0 **** 0.06
32304 H 39.092022383754674 103.11559962761322 11.402250924395418 H 0.0 **** 0.06
32305 H 40.4924715386571 102.01971229613673 11.476130773764254 H 0.0 **** 0.06
32306 C 72.15505100532698 80.20531058725219 21.443479167951125 C 0.0 **** -0.24
32307 H 72.26083974278663 81.20917553912109 21.032715938647073 H 0.0 **** 0.06
32308 H 71.64219122781321 79.56999313123674 20.72164185243099 H 0.0 **** 0.06
32309 H 71.57517245959497 80.25077386566878 22.36569853292491 H 0.0 **** 0.06
32310 H 73.14164469529146 79.79390240161914 21.654909311788742 H 0.0 **** 0.06
32311 C 111.91021421208505 77.75562688401851 51.553146460816436 C 0.0 **** -0.24
32312 H 111.48469930400091 76.97567470736078 52.18394292022174 H 0.0 **** 0.06
32313 H 112.85397224440749 78.09437713928844 51.98080357529693 H 0.0 **** 0.06
32314 H 111.21728960509837 78.59394283181655 51.492745074317924 H 0.0 **** 0.06
32315 H 112.08629361097653 77.35757878610536 50.553312790322764 H 0.0 **** 0.06
32316 C 35.1011254273846 2.951504904761565 107.16661315144212 C 0.0 **** -0.24
32317 H 34.19692275852316 3.235919140649008 107.70437481343077 H 0.0 **** 0.06
32318 H 35.975933157867246 3.2343634654657336 107.75250652907498 H 0.0 **** 0.06
32319 H 35.12722922870677 3.462865006799067 106.20455599605113 H 0.0 **** 0.06
32320 H 35.10408763922828 1.8736817764101446 107.00550120667644 H 0.0 **** 0.06
32321 C 47.100402758123266 5.746211097697596 82.2830759187581 C 0.0 **** -0.24
32322 H 48.179608092252806 5.8863585395388895 82.34694384996068 H 0.0 **** 0.06
32323 H 46.85827837580615 4.7009044049633815 82.47649848688872 H 0.0 **** 0.06
32324 H 46.75668789493318 6.020357700642478 81.28552426381617 H 0.0 **** 0.06
32325 H 46.60789376968415 6.376779040102548 83.02307693379413 H 0.0 **** 0.06
32326 C 52.49399737438904 106.24395280846909 61.20373747637518 C 0.0 **** -0.24
32327 H 52.27800557570657 105.33607267532892 60.639434516033205 H 0.0 **** 0.06
32328 H 52.91058797704005 106.99661015898062 60.53472573577761 H 0.0 **** 0.06
32329 H 53.21263424559305 106.01892173349668 61.99144210739368 H 0.0 **** 0.06
32330 H 51.573920472136194 106.62214496212118 61.64914261182642 H 0.0 **** 0.06
32331 C 36.875915859451595 49.449393335356945 62.1382157943728 C 0.0 **** -0.24
32332 H 37.4698433465295 49.7440464529453 61.27234438197257 H 0.0 **** 0.06
32333 H 37.52401061532345 48.98706707014509 62.8826680488244 H 0.0 **** 0.06
32334 H 36.111246156929326 48.7368365253011 61.82853594811837 H 0.0 **** 0.06
32335 H 36.39909109299185 50.33012578853911 62.56774345408934 H 0.0 **** 0.06
32336 C 100.59374053396039 33.25798029052322 23.632174832087088 C 0.0 **** -0.24
32337 H 100.05538206291334 33.79136237529508 24.416194802642025 H 0.0 **** 0.06
32338 H 100.60633136717595 32.192145251781994 23.862641233227862 H 0.0 **** 0.06
32339 H 101.61539294048754 33.630524396439625 23.57600840172603 H 0.0 **** 0.06
32340 H 100.09498344942062 33.41769745180653 22.676245257658138 H 0.0 **** 0.06
32341 C 35.487409701742536 14.978760858578482 2.9995812588960007 C 0.0 **** -0.24
32342 H 35.40788757851698 13.966068873777488 3.397083247372052 H 0.0 **** 0.06
32343 H 35.79573319102752 14.934438808980588 1.9544531302607595 H 0.0 **** 0.06
32344 H 36.22809102800403 15.535549365044972 3.573101314838027 H 0.0 **** 0.06
32345 H 34.52071070122665 15.474381380996817 3.0734713960161457 H 0.0 **** 0.06
32346 C 74.39869036931835 16.380822381559284 94.00600414577463 C 0.0 **** -0.24
32347 H 73.61619805631352 17.12444520245859 93.85924120468451 H 0.0 **** 0.06
32348 H 74.22152879945992 15.531533830728335 93.34554950403776 H 0.0 **** 0.06
32349 H 74.3885486244729 16.04409829246265 95.0431158287272 H 0.0 **** 0.06
32350 H 75.3683459043159 16.82315130438971 93.77751602552428 H 0.0 **** 0.06
32351 C 106.11486220717853 62.40859519662965 42.79856437733605 C 0.0 **** -0.24
32352 H 106.35916666543432 61.38305762629513 43.07346893180622 H 0.0 **** 0.06
32353 H 105.38203358006831 62.40279806445464 41.99195596730243 H 0.0 **** 0.06
32354 H 107.01797096847844 62.92070927054131 42.46622071938745 H 0.0 **** 0.06
32355 H 105.70023161471596 62.927682129684996 43.66360187385928 H 0.0 **** 0.06
32356 C 66.02724985772754 54.454392685809566 62.164032900412295 C 0.0 **** -0.24
32357 H 66.03328502608477 53.405417491546956 62.46313367249823 H 0.0 **** 0.06
32358 H 66.79826040383843 54.62209909733769 61.41220656694301 H 0.0 **** 0.06
32359 H 66.22508257061928 55.080752569647125 63.034440346940784 H 0.0 **** 0.06
32360 H 65.05150468157126 54.70767163118394 61.74796108955414 H 0.0 **** 0.06
32361 C 65.6351097567393 73.48097417675442 76.28647365053064 C 0.0 **** -0.24
32362 H 66.33205907039269 74.05576414475837 76.89686511095474 H 0.0 **** 0.06
32363 H 66.17363836180448 73.01737401394499 75.46011394193886 H 0.0 **** 0.06
32364 H 64.86553301019256 74.14374612836548 75.89297342659182 H 0.0 **** 0.06
32365 H 65.17047650084598 72.70672197530564 76.8974614177593 H 0.0 **** 0.06
32366 C 54.11408938129693 52.529069745068874 91.38895642133473 C 0.0 **** -0.24
32367 H 53.207377002755536 53.122351267306904 91.27189560095023 H 0.0 **** 0.06
32368 H 53.88291173990256 51.616543267325085 91.93846609368671 H 0.0 **** 0.06
32369 H 54.85776411428104 53.1066630986728 91.93831093679277 H 0.0 **** 0.06
32370 H 54.508415734944734 52.270534449168224 90.40575561084256 H 0.0 **** 0.06
32371 C 89.88520290158164 107.74222895420326 37.227390629947145 C 0.0 **** -0.24
32372 H 90.80112883922695 107.92338968188211 37.78977218770854 H 0.0 **** 0.06
32373 H 90.10953243671078 107.73709935406427 36.160772377446385 H 0.0 **** 0.06
32374 H 89.16438423855176 108.53013815213588 37.44365447537803 H 0.0 **** 0.06
32375 H 89.46716190183122 106.77726778090506 37.5154622454606 H 0.0 **** 0.06
32376 C 68.31000349277028 108.26024261583626 106.39157846634637 C 0.0 **** -0.24
32377 H 68.07320368475052 107.38911658936131 105.78045992792966 H 0.0 **** 0.06
32378 H 68.80771193101333 109.01047811950912 105.77809946375365 H 0.0 **** 0.06
32379 H 68.96895816752733 107.96149570033904 107.20710320340822 H 0.0 **** 0.06
32380 H 67.38995558841434 108.67643089125825 106.8020900178687 H 0.0 **** 0.06
32381 C 50.289794361591134 32.24745991271334 22.107905791332644 C 0.0 **** -0.24
32382 H 49.799973469622074 33.176781116290414 21.815510164127804 H 0.0 **** 0.06
32383 H 50.26514186457018 31.54652939385268 21.272733179578296 H 0.0 **** 0.06
32384 H 49.76642198103902 31.814476318056123 22.961014913261227 H 0.0 **** 0.06
32385 H 51.32408364493264 32.45273192689433 22.381420970120903 H 0.0 **** 0.06
32386 C 82.9958638212774 77.05410425683209 25.78737255838473 C 0.0 **** -0.24
32387 H 83.45787272651853 78.03921412216677 25.718896970594415 H 0.0 **** 0.06
32388 H 81.99447248999854 77.15157144932658 26.20811615107624 H 0.0 **** 0.06
32389 H 83.60005145791104 76.41426756963571 26.431063404699046 H 0.0 **** 0.06
32390 H 82.93129759456122 76.61288274987058 24.793320610686862 H 0.0 **** 0.06
32391 C 56.65122342106214 112.8009453196712 102.87629922909582 C 0.0 **** -0.24
32392 H 57.50246809464247 112.59024585502809 103.5233307355578 H 0.0 **** 0.06
32393 H 56.911269602295775 112.56221372690229 101.84440347874175 H 0.0 **** 0.06
32394 H 56.39086315463257 113.85665322076355 102.94985799114431 H 0.0 **** 0.06
32395 H 55.79985268893138 112.19413270529765 103.18688410001153 H 0.0 **** 0.06
32396 C 66.3104248223654 71.05779109694618 63.910734970638146 C 0.0 **** -0.24
32397 H 66.46332858132814 70.07920875187614 64.36580154571016 H 0.0 **** 0.06
32398 H 66.34570787121737 71.82680360063875 64.68285637898151 H 0.0 **** 0.06
32399 H 65.33778374678758 71.08152791912606 63.418548524741595 H 0.0 **** 0.06
32400 H 67.09409475831947 71.24403320869311 63.17619982754621 H 0.0 **** 0.06
32401 C 94.502215279378 109.78073577044961 106.32907840254097 C 0.0 **** -0.24
32402 H 95.35130572471309 109.26639445884966 105.87872743143078 H 0.0 **** 0.06
32403 H 94.4573865220608 110.80352706483049 105.95361340992037 H 0.0 **** 0.06
32404 H 94.61882142639999 109.79618867021459 107.41258371051396 H 0.0 **** 0.06
32405 H 93.58125268822417 109.25762924402989 106.07079165135099 H 0.0 **** 0.06
32406 C 90.28066916888409 80.67726942541726 18.81683972771816 C 0.0 **** -0.24
32407 H 89.65674755580409 81.1420004457896 19.58084594643725 H 0.0 **** 0.06
32408 H 91.30176973094382 80.5871122165296 19.186669205284772 H 0.0 **** 0.06
32409 H 90.27174582976812 81.29246994660276 17.917340855497855 H 0.0 **** 0.06
32410 H 89.88965677011055 79.68689924933078 18.58228950161896 H 0.0 **** 0.06
32411 C 24.212941555021246 41.74108474167991 37.82782774728801 C 0.0 **** -0.24
32412 H 23.722724429649617 42.62572120617955 37.42035983868354 H 0.0 **** 0.06
32413 H 23.893772388368006 41.591249052703944 38.859103098033785 H 0.0 **** 0.06
32414 H 25.293497572391715 41.87833154906201 37.797454747303036 H 0.0 **** 0.06
32415 H 23.940101252878975 40.86945796800944 37.232967690504836 H 0.0 **** 0.06
32416 C 102.36998799343988 65.60550740691446 65.81517592317351 C 0.0 **** -0.24
32417 H 103.36368355671198 65.43863904012534 66.22960875111298 H 0.0 **** 0.06
32418 H 102.37877471032775 65.37983694030567 64.74859999250862 H 0.0 **** 0.06
32419 H 102.08388374945034 66.64697307948688 65.96343309969791 H 0.0 **** 0.06
32420 H 101.65281649872855 64.95717382705493 66.31919795150863 H 0.0 **** 0.06
32421 C 46.52075027527125 42.64584914600064 29.328489787619873 C 0.0 **** -0.24
32422 H 45.45296773046265 42.437785769287245 29.260617703602122 H 0.0 **** 0.06
32423 H 46.82248462249482 43.27470349596831 28.490948064923884 H 0.0 **** 0.06
32424 H 47.07561187656672 41.707923173601046 29.297666874919628 H 0.0 **** 0.06
32425 H 46.73051720801078 43.16205109230157 30.265064350755296 H 0.0 **** 0.06
32426 C 6.476537586338253 33.04975172240671 15.901739202242368 C 0.0 **** -0.24
32427 H 6.473987410461831 32.30794259938557 16.701598181769157 H 0.0 **** 0.06
32428 H 5.5841083422078555 33.670893301197566 15.981204688769594 H 0.0 **** 0.06
32429 H 6.483932514597598 32.54335080700076 14.936458418636846 H 0.0 **** 0.06
32430 H 7.364853136366605 33.675452290597775 15.990451421716102 H 0.0 **** 0.06
32431 C 8.134547476142444 62.92752637915703 77.58997729137644 C 0.0 **** -0.24
32432 H 7.719782937599945 63.03034467168095 76.58700353484292 H 0.0 **** 0.06
32433 H 7.782689848401361 61.996434292914614 78.03384356743791 H 0.0 **** 0.06
32434 H 7.811485668417703 63.76810535516273 78.2041039941891 H 0.0 **** 0.06
32435 H 9.223565997647313 62.91615591855356 77.53303875857347 H 0.0 **** 0.06
32436 C 76.544525481331 102.80667722857476 27.275587387263812 C 0.0 **** -0.24
32437 H 76.57041487237115 103.8957643527806 27.233461917405094 H 0.0 **** 0.06
32438 H 76.81643606218415 102.47523987446955 28.2783054605722 H 0.0 **** 0.06
32439 H 77.25102798770749 102.39828361906127 26.552728173825074 H 0.0 **** 0.06
32440 H 75.53929374021286 102.45843806025438 27.03817385817848 H 0.0 **** 0.06
32441 C 75.24593132368621 101.19734888913257 86.32249721356092 C 0.0 **** -0.24
32442 H 74.26628716430208 101.54053750329311 86.65338448392353 H 0.0 **** 0.06
32443 H 75.72766297436105 100.64427644379897 87.12894501287796 H 0.0 **** 0.06
32444 H 75.85964769703537 102.05819808235859 86.05486406183189 H 0.0 **** 0.06
32445 H 75.12963929712537 100.5492838280872 85.45395741463375 H 0.0 **** 0.06
32446 C 61.01950288045025 7.418544876617801 89.2245912675061 C 0.0 **** -0.24
32447 H 61.081630103973126 6.847094217199128 90.15072673726928 H 0.0 **** 0.06
32448 H 62.024804679846426 7.681169720069249 88.8927025335244 H 0.0 **** 0.06
32449 H 60.44368437436154 8.32781209359689 89.39730992280117 H 0.0 **** 0.06
32450 H 60.52923627736726 6.817109515190964 88.45911121236585 H 0.0 **** 0.06
32451 C 57.51706312752901 51.00514965187986 56.371306479460316 C 0.0 **** -0.24
32452 H 58.312909604786796 50.46559145616027 55.856649346921294 H 0.0 **** 0.06
32453 H 57.28892866665217 51.920876093635115 55.825093742637364 H 0.0 **** 0.06
32454 H 57.842567006976594 51.2555057226881 57.38128947445669 H 0.0 **** 0.06
32455 H 56.626440926343435 50.379331895489884 56.42052779414681 H 0.0 **** 0.06
32456 C 13.105467299712352 23.717097357012932 95.2493869035523 C 0.0 **** -0.24
32457 H 12.736198090675526 24.677474022043555 94.88843189795287 H 0.0 **** 0.06
32458 H 13.908683351541445 23.88369775294342 95.96680226965464 H 0.0 **** 0.06
32459 H 13.482842026859142 23.134690308131212 94.40898706639769 H 0.0 **** 0.06
32460 H 12.29383140919525 23.173912369664123 95.73233487646945 H 0.0 **** 0.06
32461 C 81.05331099905064 86.99446300183948 74.49665627761414 C 0.0 **** -0.24
32462 H 80.06591283347748 87.42405136950383 74.66082435398607 H 0.0 **** 0.06
32463 H 81.68014355857153 87.1804442066329 75.36926474440173 H 0.0 **** 0.06
32464 H 81.507587314919 87.4527207941432 73.61850062745873 H 0.0 **** 0.06
32465 H 80.96041696901916 85.91968369216576 74.33868879775395 H 0.0 **** 0.06
32466 C 89.76704220381703 44.168231713370176 110.245855588993 C 0.0 **** -0.24
32467 H 90.7344442666647 44.30310314795145 110.72886744878753 H 0.0 **** 0.06
32468 H 89.34568379612918 45.14361102448112 109.9984531631293 H 0.0 **** 0.06
32469 H 89.0938796048637 43.642909555362905 110.92239252554144 H 0.0 **** 0.06
32470 H 89.8950160408732 43.58559856063221 109.33368737622706 H 0.0 **** 0.06
32471 C 80.07623040040302 16.064648071728925 54.0551610520634 C 0.0 **** -0.24
32472 H 80.40857674045678 16.067288479895495 53.01673073075861 H 0.0 **** 0.06
32473 H 80.76361366287713 15.468013142256211 54.65425413709946 H 0.0 **** 0.06
32474 H 79.07587222019747 15.635837491814357 54.11390242368205 H 0.0 **** 0.06
32475 H 80.05594802249328 17.087039099808152 54.43215143485685 H 0.0 **** 0.06
32476 C 106.79346873087007 90.51076934205541 59.9666812082034 C 0.0 **** -0.24
32477 H 107.17689761338505 89.50006471725692 59.823729967237966 H 0.0 **** 0.06
32478 H 107.61639203122719 91.22406254093842 59.897820785761496 H 0.0 **** 0.06
32479 H 106.32796084503343 90.58670530026089 60.94878182885907 H 0.0 **** 0.06
32480 H 106.05460922584899 90.73135945631371 59.19586591053741 H 0.0 **** 0.06
32481 C 71.97728303304001 93.29453628165602 69.75742046265674 C 0.0 **** -0.24
32482 H 71.54890675022068 93.90038614663187 68.95922485296195 H 0.0 **** 0.06
32483 H 71.19887274649983 92.66969312152186 70.19672112887747 H 0.0 **** 0.06
32484 H 72.3955231644365 93.94728862836692 70.52346230552084 H 0.0 **** 0.06
32485 H 72.76546986898836 92.66130532205948 69.34950423749697 H 0.0 **** 0.06
32486 C 0.5537240480134411 22.913038136086364 98.15941472605766 C 0.0 **** -0.24
32487 H -0.1768178284854791 23.35533385654784 97.48266915279657 H 0.0 **** 0.06
32488 H 0.17192026002765814 22.947591990900648 99.17944237969101 H 0.0 **** 0.06
32489 H 1.488371864183602 23.47079620271178 98.10014452265216 H 0.0 **** 0.06
32490 H 0.7314361519005459 21.87583909532853 97.87270372982493 H 0.0 **** 0.06
32491 C 17.591914151267247 43.77629457803863 81.53055871566829 C 0.0 **** -0.24
32492 H 17.439867883374404 44.46907471188172 82.35781510496992 H 0.0 **** 0.06
32493 H 18.56120642639806 43.96898414115441 81.06849065903265 H 0.0 **** 0.06
32494 H 16.803155243487907 43.91459144857731 80.7907303949545 H 0.0 **** 0.06
32495 H 17.564227905467362 42.75237154650574 81.90367085457137 H 0.0 **** 0.06
32496 C 83.4975768646776 92.29814516671996 91.10059738208308 C 0.0 **** -0.24
32497 H 83.8856965890283 91.90134280954118 92.03925417957815 H 0.0 **** 0.06
32498 H 84.13298597221481 93.11774449300975 90.76307428827282 H 0.0 **** 0.06
32499 H 82.48262071095422 92.66440178492172 91.25350789414273 H 0.0 **** 0.06
32500 H 83.49063955279395 91.50974516866131 90.34898193351023 H 0.0 **** 0.06
32501 C 39.248635849149196 10.971170589095422 33.92265186148063 C 0.0 **** -0.24
32502 H 39.57678480168744 9.940240842143211 34.05075185358817 H 0.0 **** 0.06
32503 H 38.878485108931216 11.111421004723042 32.90632372058792 H 0.0 **** 0.06
32504 H 40.08736088305335 11.644712540394508 34.10016282278508 H 0.0 **** 0.06
32505 H 38.451517228400434 11.189629442055946 34.63305679587148 H 0.0 **** 0.06
32506 C 64.97943283022956 24.53329549042627 96.10437452541828 C 0.0 **** -0.24
32507 H 65.93335419311364 24.933084924924145 96.44888434726755 H 0.0 **** 0.06
32508 H 64.28305568815637 24.483909192462647 96.9423467848489 H 0.0 **** 0.06
32509 H 65.13029103790159 23.533920790376015 95.69780289503774 H 0.0 **** 0.06
32510 H 64.57201019752368 25.18368100785088 95.32989271684221 H 0.0 **** 0.06
32511 C 56.270108133889494 6.610367866260944 10.747195348575218 C 0.0 **** -0.24
32512 H 55.18253588154175 6.612946835968685 10.822292081324711 H 0.0 **** 0.06
32513 H 56.569545692054135 7.067517542795727 9.804018862749704 H 0.0 **** 0.06
32514 H 56.634395333213035 5.583479234450095 10.786004664817796 H 0.0 **** 0.06
32515 H 56.69257275484881 7.177572292014361 11.576758699337397 H 0.0 **** 0.06
32516 C 7.715492470466245 35.82530268093609 104.91584472895444 C 0.0 **** -0.24
32517 H 7.132293023921875 35.48990065786626 105.77381062443054 H 0.0 **** 0.06
32518 H 7.593724221419279 36.901249293990475 104.79307297833532 H 0.0 **** 0.06
32519 H 7.368516592789206 35.313944386648984 104.01810591786892 H 0.0 **** 0.06
32520 H 8.768289156081835 35.59473524036872 105.08110328663129 H 0.0 **** 0.06
32521 C 51.512903003342586 85.80274688431666 94.27582718479957 C 0.0 **** -0.24
32522 H 50.965564895931266 84.86306606553501 94.20825163667627 H 0.0 **** 0.06
32523 H 51.188449816170646 86.47134818079982 93.47847281687771 H 0.0 **** 0.06
32524 H 52.58073975306684 85.60839764983575 94.17431058840998 H 0.0 **** 0.06
32525 H 51.3189309642255 86.26770158185872 95.24296398568299 H 0.0 **** 0.06
32526 C 56.6260076105832 55.81227215025865 76.29019131136681 C 0.0 **** -0.24
32527 H 57.589634389808495 56.315337772015766 76.21460743257526 H 0.0 **** 0.06
32528 H 56.38368152350198 55.64601808835414 77.33988517874167 H 0.0 **** 0.06
32529 H 56.67573923271013 54.8540576485824 75.77229524843716 H 0.0 **** 0.06
32530 H 55.8554516519146 56.43229716674625 75.83228189421592 H 0.0 **** 0.06
32531 C 44.54103764976092 104.55200777936415 107.22527537267858 C 0.0 **** -0.24
32532 H 45.42655112263453 103.92228965265753 107.14020179386804 H 0.0 **** 0.06
32533 H 44.84583846961348 105.59068512735692 107.35859252140253 H 0.0 **** 0.06
32534 H 43.94994486650546 104.23314260966501 108.0843323747638 H 0.0 **** 0.06
32535 H 43.94248796913649 104.46179413124293 106.31870582703539 H 0.0 **** 0.06
32536 C 41.66914852418168 58.9619031711015 109.53573784873625 C 0.0 **** -0.24
32537 H 41.08801353874475 58.07083608420977 109.77432359881274 H 0.0 **** 0.06
32538 H 42.73142167905661 58.74609806202248 109.65739535891542 H 0.0 **** 0.06
32539 H 41.38401586617255 59.7715448287271 110.2075423663774 H 0.0 **** 0.06
32540 H 41.474379025409746 59.2574659584151 108.50499054013143 H 0.0 **** 0.06
32541 C 101.70619090622863 63.4060834484623 51.39681365254836 C 0.0 **** -0.24
32542 H 101.48632385034969 63.99997904990579 50.51010287593335 H 0.0 **** 0.06
32543 H 102.73102311009463 63.5950243038625 51.71576637462707 H 0.0 **** 0.06
32544 H 101.58600985532976 62.34848905396932 51.16541772695236 H 0.0 **** 0.06
32545 H 101.01933300857732 63.682887270802865 52.19809235531279 H 0.0 **** 0.06
32546 C 107.43188217602733 75.36612965129228 67.11558671859387 C 0.0 **** -0.24
32547 H 106.70832953943534 75.87116602593329 67.75575498845048 H 0.0 **** 0.06
32548 H 107.41052223012184 74.29535131203471 67.3180467144009 H 0.0 **** 0.06
32549 H 108.42970958544004 75.75511856850915 67.31666281785094 H 0.0 **** 0.06
32550 H 107.17638555861134 75.54458342031648 66.07068130028183 H 0.0 **** 0.06
32551 C 31.589629752796156 20.474875169291394 88.05245286431594 C 0.0 **** -0.24
32552 H 31.31830509979136 19.436416119100954 88.24486476880918 H 0.0 **** 0.06
32553 H 32.086064289749146 20.88905895447874 88.93058107461113 H 0.0 **** 0.06
32554 H 30.689866896559522 21.051448998134575 87.83749709434335 H 0.0 **** 0.06
32555 H 32.263656678747964 20.52138440088872 87.19730075553434 H 0.0 **** 0.06
32556 C 82.85629589003456 28.097618144959966 52.75308336859382 C 0.0 **** -0.24
32557 H 82.13497292548637 27.95740004712077 51.947701068839194 H 0.0 **** 0.06
32558 H 83.71389176815148 27.444468885176747 52.590092758418336 H 0.0 **** 0.06
32559 H 82.38743979475078 27.85167702151537 53.70570735682753 H 0.0 **** 0.06
32560 H 83.18694754472008 29.13596595986907 52.7682435559048 H 0.0 **** 0.06
32561 C 7.6678039063266255 0.2792119066452301 60.62943892993796 C 0.0 **** -0.24
32562 H 8.266728244831427 0.8925032270986151 61.301962454823055 H 0.0 **** 0.06
32563 H 8.147315215759207 0.2383817374880408 59.651394779964406 H 0.0 **** 0.06
32564 H 6.673490122293714 0.7136196237284764 60.52962638278733 H 0.0 **** 0.06
32565 H 7.584543213915396 -0.7296679556280594 61.03523532083955 H 0.0 **** 0.06
32566 C 80.10979562813452 75.55600879043877 106.72844948145388 C 0.0 **** -0.24
32567 H 80.8716653475467 74.80622243350763 106.9405048391668 H 0.0 **** 0.06
32568 H 79.6605703634952 75.8905155302943 107.66406025067931 H 0.0 **** 0.06
32569 H 79.34035422395402 75.12213622378982 106.09044083555256 H 0.0 **** 0.06
32570 H 80.56739258161753 76.40462247130199 106.22080949699875 H 0.0 **** 0.06
32571 C 107.46766110665958 8.058176860559769 88.21292117351832 C 0.0 **** -0.24
32572 H 107.99407330740642 8.23556293780949 89.1507169534625 H 0.0 **** 0.06
32573 H 107.93430371913955 7.225479906358686 87.68564319272446 H 0.0 **** 0.06
32574 H 107.5168303604595 8.954871017717792 87.59378013593373 H 0.0 **** 0.06
32575 H 106.42450659617428 7.818812564250152 88.42130303402553 H 0.0 **** 0.06
32576 C 15.78527483247575 16.17904805712419 42.62665163416166 C 0.0 **** -0.24
32577 H 15.142249656206275 15.357074964913238 42.94028418583389 H 0.0 **** 0.06
32578 H 16.732797262827944 15.780526016283432 42.26281783730076 H 0.0 **** 0.06
32579 H 15.970227850509787 16.83937536782156 43.47424930392237 H 0.0 **** 0.06
32580 H 15.29686693292939 16.739183455563023 41.83021046967906 H 0.0 **** 0.06
32581 C 82.68347384272795 93.4207339564211 18.070897383886887 C 0.0 **** -0.24
32582 H 81.76701131696376 93.59096831368572 18.636102895309335 H 0.0 **** 0.06
32583 H 83.06189098544928 94.37275126346302 17.697184754205495 H 0.0 **** 0.06
32584 H 82.47436509044314 92.75815714283183 17.23086044025783 H 0.0 **** 0.06
32585 H 83.42992684285838 92.96176970447279 18.719500739005753 H 0.0 **** 0.06
32586 C 15.255813227396658 86.52578792086722 53.327489709985464 C 0.0 **** -0.24
32587 H 15.593062507974764 87.26939978218569 52.60488268022312 H 0.0 **** 0.06
32588 H 16.032602228899776 86.36832274557104 54.075452338598545 H 0.0 **** 0.06
32589 H 15.05099698488101 85.58740097575152 52.81243749429842 H 0.0 **** 0.06
32590 H 14.346607013302503 86.87877634280012 53.81485387251502 H 0.0 **** 0.06
32591 C 48.81320040279331 100.16383839997988 5.792915877172275 C 0.0 **** -0.24
32592 H 47.74744432848212 99.93491218882093 5.768949761474097 H 0.0 **** 0.06
32593 H 49.35153713371261 99.44863892447307 5.169482692635844 H 0.0 **** 0.06
32594 H 49.176090649893865 100.09789166190193 6.81869668204234 H 0.0 **** 0.06
32595 H 48.976787634350956 101.17239511414813 5.413186857570869 H 0.0 **** 0.06
32596 C 87.0498706553011 66.83569102307683 102.33096288856825 C 0.0 **** -0.24
32597 H 86.2000950228284 67.34891920217069 102.78268608758492 H 0.0 **** 0.06
32598 H 87.5703949265573 67.51933266907542 101.65938399760185 H 0.0 **** 0.06
32599 H 86.69541202083394 65.97267229396789 101.76858025638572 H 0.0 **** 0.06
32600 H 87.73122912169731 66.50512871908359 103.11483070269176 H 0.0 **** 0.06
32601 C 49.496722524786094 74.37858809946641 113.289971566638 C 0.0 **** -0.24
32602 H 49.52432006745863 74.16594928427361 114.35908742296624 H 0.0 **** 0.06
32603 H 50.4913187376263 74.2380081375303 112.86607861543678 H 0.0 **** 0.06
32604 H 49.177192555894464 75.4091346530991 113.13319150350847 H 0.0 **** 0.06
32605 H 48.79434670758974 73.70220689659317 112.80253926197105 H 0.0 **** 0.06
32606 C 65.13847928505658 86.18913844734519 58.23805702511959 C 0.0 **** -0.24
32607 H 65.91930878370172 85.42970059981508 58.27647568386371 H 0.0 **** 0.06
32608 H 65.06809722615776 86.58668937996626 57.225374844007746 H 0.0 **** 0.06
32609 H 65.38335289948816 86.9960890238853 58.93000741198399 H 0.0 **** 0.06
32610 H 64.18500386890253 85.7442866121857 58.52161476262404 H 0.0 **** 0.06
32611 C 0.12838852969950665 69.383965446704 114.59136758637196 C 0.0 **** -0.24
32612 H 1.2071414092925323 69.27310811133572 114.48497028631434 H 0.0 **** 0.06
32613 H -0.09371158747129016 69.88853424974315 115.53266218443119 H 0.0 **** 0.06
32614 H -0.3408083485452096 68.40043084579202 114.58769361057449 H 0.0 **** 0.06
32615 H -0.259215880519605 69.974936194561 113.76205769172543 H 0.0 **** 0.06
32616 C 78.39496851427998 107.96882780471239 25.34448340089284 C 0.0 **** -0.24
32617 H 77.85286911424518 108.63513322832218 26.016202784620646 H 0.0 **** 0.06
32618 H 79.35020795405146 107.69741856849652 25.795778526689958 H 0.0 **** 0.06
32619 H 78.5715112728106 108.47460666176376 24.395432331594634 H 0.0 **** 0.06
32620 H 77.80574908485875 107.0684806737562 25.17346585167138 H 0.0 **** 0.06
32621 C 16.138213528976024 45.041930883584435 64.19137497630581 C 0.0 **** -0.24
32622 H 16.025117816471322 43.98230869073294 64.41986940759807 H 0.0 **** 0.06
32623 H 16.847885304852326 45.16414455583235 63.37287185073495 H 0.0 **** 0.06
32624 H 16.506431311749225 45.56647815421535 65.07397537925527 H 0.0 **** 0.06
32625 H 15.172755168393792 45.45533514907636 63.90107758580808 H 0.0 **** 0.06
32626 C 23.347990795177168 17.508509640920863 16.09050452503459 C 0.0 **** -0.24
32627 H 23.68620396898666 16.608781545339596 16.60630086270507 H 0.0 **** 0.06
32628 H 22.51674844124784 17.258148725040613 15.431887734947281 H 0.0 **** 0.06
32629 H 24.168649233639428 17.918919103562033 15.502340142971235 H 0.0 **** 0.06
32630 H 23.022087858439136 18.246703750636613 16.824284717021442 H 0.0 **** 0.06
32631 C 61.416609275296594 100.1874668768096 100.5040048212905 C 0.0 **** -0.24
32632 H 61.573536382328456 101.24037182184463 100.73784580006716 H 0.0 **** 0.06
32633 H 62.131082251956585 99.58108405959945 101.06073258204982 H 0.0 **** 0.06
32634 H 61.55944392113082 100.02708165726199 99.43451826076316 H 0.0 **** 0.06
32635 H 60.40197165575792 99.90147124047007 100.78124398434677 H 0.0 **** 0.06
32636 C 89.73123055965803 58.90678204460971 65.79370391404956 C 0.0 **** -0.24
32637 H 88.9808916929088 58.94148060589214 66.58434240181577 H 0.0 **** 0.06
32638 H 89.7504744611988 59.86371671239772 65.27052768664561 H 0.0 **** 0.06
32639 H 89.48128444753513 58.11272181864669 65.09005353624207 H 0.0 **** 0.06
32640 H 90.70986236195951 58.71086534381044 66.23109728047928 H 0.0 **** 0.06
32641 C 37.635440027098724 88.67116718904167 47.56314117516308 C 0.0 **** -0.24
32642 H 37.30251860252302 89.63227535548508 47.16993508078417 H 0.0 **** 0.06
32643 H 38.72290437723854 88.66549720522522 47.637590456495275 H 0.0 **** 0.06
32644 H 37.31328071659173 87.87404860678004 46.89251837130422 H 0.0 **** 0.06
32645 H 37.201505134064675 88.51284883394659 48.550625039906436 H 0.0 **** 0.06
32646 C 4.932779492302204 23.295494390282613 95.47132733218683 C 0.0 **** -0.24
32647 H 4.756229519093511 23.773303812444652 96.43563116828773 H 0.0 **** 0.06
32648 H 4.978092220182255 22.214686881830872 95.60500769186729 H 0.0 **** 0.06
32649 H 5.875680977125985 23.651173013438523 95.05737806706514 H 0.0 **** 0.06
32650 H 4.119651496782479 23.544303203884652 94.78944641295737 H 0.0 **** 0.06
32651 C 50.78299477204206 87.9083530916941 32.55767367505382 C 0.0 **** -0.24
32652 H 50.641044697302576 86.83110346985569 32.4686848707916 H 0.0 **** 0.06
32653 H 51.11982945324527 88.31016517610988 31.60102373203739 H 0.0 **** 0.06
32654 H 51.5306714926667 88.11482805568107 33.32326112680422 H 0.0 **** 0.06
32655 H 49.8380303818919 88.37592111796079 32.836593141145855 H 0.0 **** 0.06
32656 C 108.26708533876511 61.080459663613055 103.52232016933684 C 0.0 **** -0.24
32657 H 108.3835559450391 59.99774450272463 103.56368441580912 H 0.0 **** 0.06
32658 H 109.23379503508772 61.54252950496499 103.32058168808743 H 0.0 **** 0.06
32659 H 107.8838269678484 61.44096901364151 104.47780207931231 H 0.0 **** 0.06
32660 H 107.56680198013785 61.340512800909266 102.7281412385858 H 0.0 **** 0.06
32661 C 24.20656011413726 109.8042811185647 70.75889006808472 C 0.0 **** -0.24
32662 H 23.452267164690028 110.57290469240796 70.93117929407822 H 0.0 **** 0.06
32663 H 23.811897184197903 108.83402290931646 71.05940412299651 H 0.0 **** 0.06
32664 H 25.096933629333876 110.0317564334361 71.34470191072785 H 0.0 **** 0.06
32665 H 24.46500213190575 109.7798477082984 69.70027810755533 H 0.0 **** 0.06
32666 C 14.649423874961172 85.28314982324127 87.10528393255649 C 0.0 **** -0.24
32667 H 14.994621898379762 86.28360084578634 86.8443191190508 H 0.0 **** 0.06
32668 H 13.774958569906204 85.35892418048275 87.75266736817424 H 0.0 **** 0.06
32669 H 15.44359585213543 84.74953579478273 87.628390565841 H 0.0 **** 0.06
32670 H 14.383974082465656 84.7413500973671 86.1977697509376 H 0.0 **** 0.06
32671 C 44.24996736157041 0.5165143154981138 110.21058842344637 C 0.0 **** -0.24
32672 H 44.21645014818134 -0.14074072797728832 109.34138822349699 H 0.0 **** 0.06
32673 H 43.74029168073349 1.4518897837679674 109.97817495021314 H 0.0 **** 0.06
32674 H 45.288298830005715 0.7229936325221047 110.47023744045997 H 0.0 **** 0.06
32675 H 43.75477168187956 0.031151492089691146 111.05190926107474 H 0.0 **** 0.06
32676 C 84.52229319057656 77.34427927271253 113.22628261085264 C 0.0 **** -0.24
32677 H 84.18207374141275 76.44758583483366 112.70676721156164 H 0.0 **** 0.06
32678 H 84.91129507491905 77.06983325725025 114.20710905044658 H 0.0 **** 0.06
32679 H 83.68609961489128 78.03276537967372 113.3471160637535 H 0.0 **** 0.06
32680 H 85.30837695689094 77.82445477664658 112.6444524891852 H 0.0 **** 0.06
32681 C 84.19202906387736 111.82917651862121 8.070835931308025 C 0.0 **** -0.24
32682 H 84.52712047769776 111.0157263470349 7.42856961164739 H 0.0 **** 0.06
32683 H 85.04306507669145 112.23061327272308 8.622953593994083 H 0.0 **** 0.06
32684 H 83.44772714684657 111.45520716503654 8.773081664377258 H 0.0 **** 0.06
32685 H 83.75136772608255 112.6170608703699 7.45890908807668 H 0.0 **** 0.06
32686 C 70.97391680518967 91.24704437173273 59.63337278466838 C 0.0 **** -0.24
32687 H 70.87108560784327 90.17267120241911 59.480282606605385 H 0.0 **** 0.06
32688 H 70.20089992731116 91.59054109123443 60.32171901742822 H 0.0 **** 0.06
32689 H 70.86572756012072 91.76156729843555 58.67820429789913 H 0.0 **** 0.06
32690 H 71.9562789303262 91.46202397511986 60.05273172772286 H 0.0 **** 0.06
32691 C 14.65826875147869 0.988697437704765 38.19324755678247 C 0.0 **** -0.24
32692 H 13.806053228198422 1.6596616673181668 38.30490912486886 H 0.0 **** 0.06
32693 H 14.535222929101995 0.39428999819675603 37.28690260091986 H 0.0 **** 0.06
32694 H 14.715004672936097 0.3276170512489909 39.05777996622297 H 0.0 **** 0.06
32695 H 15.574062523528362 1.5747229138472658 38.12226581312905 H 0.0 **** 0.06
32696 C 39.60892004967155 82.84273057300284 101.04764455277922 C 0.0 **** -0.24
32697 H 39.82783814079295 81.86291079779159 100.6213843966309 H 0.0 **** 0.06
32698 H 38.756595233281274 82.76283866108714 101.72178415147647 H 0.0 **** 0.06
32699 H 39.37559154182537 83.54378029484408 100.2457289094312 H 0.0 **** 0.06
32700 H 40.47776202132749 83.1999119309918 101.60014128402247 H 0.0 **** 0.06
32701 C 22.747656630132255 64.6604803418056 40.05685056370319 C 0.0 **** -0.24
32702 H 21.8715340948699 64.31410601459191 39.507741522858964 H 0.0 **** 0.06
32703 H 23.363825081157074 63.805690203987695 40.33529589169251 H 0.0 **** 0.06
32704 H 22.4280923264549 65.18709597191284 40.95622545798807 H 0.0 **** 0.06
32705 H 23.327146631135363 65.33614395686374 39.4262011501543 H 0.0 **** 0.06
32706 C 64.50777689090896 42.95191328289371 99.68109597664585 C 0.0 **** -0.24
32707 H 64.93547140776978 43.60342467629741 100.4441450875824 H 0.0 **** 0.06
32708 H 63.64610857268433 42.42751732895124 100.09309730692951 H 0.0 **** 0.06
32709 H 65.25654061365219 42.226592591243474 99.36285969536078 H 0.0 **** 0.06
32710 H 64.19532222615675 43.55016725216018 98.82616455803372 H 0.0 **** 0.06
32711 C 68.65180732109894 25.701645163624164 18.199438901197315 C 0.0 **** -0.24
32712 H 68.56372116298687 26.07661584750707 17.17957499320235 H 0.0 **** 0.06
32713 H 68.14871048021632 26.3861060616523 18.882589991713015 H 0.0 **** 0.06
32714 H 69.70494419882169 25.626463713991825 18.469377770033915 H 0.0 **** 0.06
32715 H 68.18842776008148 24.71704243007423 18.264526615377363 H 0.0 **** 0.06
32716 C 90.62344819676306 111.21817782319653 50.012586896717835 C 0.0 **** -0.24
32717 H 91.1997404688912 110.51339266086376 50.612241517525035 H 0.0 **** 0.06
32718 H 90.42406824511937 110.78337998049625 49.033052295169114 H 0.0 **** 0.06
32719 H 91.19080372414001 112.14045260365828 49.89242691229265 H 0.0 **** 0.06
32720 H 89.6801276971832 111.43422980050127 50.514215779235826 H 0.0 **** 0.06
32721 C 114.7366332709941 105.15578482623437 93.2426583366909 C 0.0 **** -0.24
32722 H 115.79896583284028 104.91386641113942 93.20011885999664 H 0.0 **** 0.06
32723 H 114.15642337115173 104.30127687894449 92.89455319639137 H 0.0 **** 0.06
32724 H 114.53477892970824 106.01616099160512 92.60466756194356 H 0.0 **** 0.06
32725 H 114.45854870140408 105.39081718441685 94.2695060632278 H 0.0 **** 0.06
32726 C 79.03932432411165 68.14004786314118 27.104143313714033 C 0.0 **** -0.24
32727 H 78.0961277282463 68.65340098882325 27.293493136322184 H 0.0 **** 0.06
32728 H 79.12391774316185 67.27951759167586 27.769196142666004 H 0.0 **** 0.06
32729 H 79.86795511468219 68.8240112606206 27.287409877365647 H 0.0 **** 0.06
32730 H 79.06803500027223 67.80285088869796 26.06853316034244 H 0.0 **** 0.06
32731 C 17.24168331502412 102.10946376407401 22.14752423830157 C 0.0 **** -0.24
32732 H 17.30891953901846 102.63305662764787 23.101460499005498 H 0.0 **** 0.06
32733 H 18.081782375591928 101.42226642890307 22.05101050513622 H 0.0 **** 0.06
32734 H 17.268590121300207 102.83443183434008 21.333762664987944 H 0.0 **** 0.06
32735 H 16.306701512161737 101.55075168857786 22.106397657185255 H 0.0 **** 0.06
32736 C 74.38049184999136 83.41630169866811 66.70679695119794 C 0.0 **** -0.24
32737 H 75.3955240591975 83.62748772398804 67.04514987837541 H 0.0 **** 0.06
32738 H 74.41627417355488 82.91621338356924 65.7390408630208 H 0.0 **** 0.06
32739 H 73.82826707189139 84.35166232286075 66.61311194064336 H 0.0 **** 0.06
32740 H 73.88332363617968 82.77247613860588 67.43213201324215 H 0.0 **** 0.06
32741 C 57.03302442935967 85.64675459601644 105.10365310816657 C 0.0 **** -0.24
32742 H 56.30285059583372 85.30752286877112 104.36818752686746 H 0.0 **** 0.06
32743 H 58.03563559518216 85.5662746924352 104.68304115056954 H 0.0 **** 0.06
32744 H 56.96287371552097 85.02741633203635 105.99812589900121 H 0.0 **** 0.06
32745 H 56.83073359827864 86.68586680268034 105.36384498213225 H 0.0 **** 0.06
32746 C 52.56176946577011 31.874015355974393 94.4997726091317 C 0.0 **** -0.24
32747 H 52.62587036989635 32.939553325387436 94.27988525502803 H 0.0 **** 0.06
32748 H 52.57043435668788 31.72547016750019 95.57970446685499 H 0.0 **** 0.06
32749 H 53.41305002684771 31.359570962187306 94.05391845470723 H 0.0 **** 0.06
32750 H 51.636705332056295 31.47334013297305 94.0849072272361 H 0.0 **** 0.06
32751 C 102.4954989208463 111.26565666055035 35.47067441192398 C 0.0 **** -0.24
32752 H 102.9507401748304 110.27490602239581 35.46575804982649 H 0.0 **** 0.06
32753 H 102.94661805443658 111.87618059109076 34.68870664403755 H 0.0 **** 0.06
32754 H 102.65955754725502 111.73582782897296 36.43935407624099 H 0.0 **** 0.06
32755 H 101.42447612536208 111.17348260932164 35.28806357664692 H 0.0 **** 0.06
32756 C 23.660540538606504 33.67831381599717 0.7080644198172763 C 0.0 **** -0.24
32757 H 23.105642649254886 32.94306022625517 0.12416106988678166 H 0.0 **** 0.06
32758 H 23.044725611634796 34.022171873244815 1.5387310981848543 H 0.0 **** 0.06
32759 H 23.92056364314116 34.525234740061876 0.07265548243813669 H 0.0 **** 0.06
32760 H 24.571471623931792 33.22093883450532 1.0954767241545937 H 0.0 **** 0.06
32761 C 15.714917930662438 85.51700651042455 115.63250415284682 C 0.0 **** -0.24
32762 H 14.828805326829638 85.55494164537993 116.26587048845755 H 0.0 **** 0.06
32763 H 16.433306646263134 86.26620275864212 115.96728656886853 H 0.0 **** 0.06
32764 H 15.4314614168986 85.72143699256742 114.5991938231864 H 0.0 **** 0.06
32765 H 16.165192112508734 84.52678458482478 115.6961218361547 H 0.0 **** 0.06
32766 C 97.97603445343293 9.866986335154266 85.47345416377442 C 0.0 **** -0.24
32767 H 98.04897761108492 9.9054172998095 84.38741235635428 H 0.0 **** 0.06
32768 H 96.99207793859762 9.492477026069778 85.75834360374785 H 0.0 **** 0.06
32769 H 98.1160577607464 10.867233434771535 85.88327700913061 H 0.0 **** 0.06
32770 H 98.74599979858638 9.202311712915915 85.86561686801576 H 0.0 **** 0.06
32771 C 93.04978869026888 61.41435855955331 113.91529438246135 C 0.0 **** -0.24
32772 H 93.98320354519353 61.741884272522725 114.37357398695713 H 0.0 **** 0.06
32773 H 92.97346759755203 61.82999470647792 112.9093543373964 H 0.0 **** 0.06
32774 H 92.20951717592925 61.761511118553244 114.5168552328011 H 0.0 **** 0.06
32775 H 93.0340043170554 60.32625572825145 113.86121498192205 H 0.0 **** 0.06
32776 C 64.86021177921889 103.39867344469927 23.32475724372636 C 0.0 **** -0.24
32777 H 63.905002247601686 103.71276965578667 23.745238946939953 H 0.0 **** 0.06
32778 H 65.66379680870155 103.65837631971871 24.01425423396398 H 0.0 **** 0.06
32779 H 65.02127524748312 103.90486705848784 22.37238378733751 H 0.0 **** 0.06
32780 H 64.8503706330662 102.32038538233553 23.165761774156657 H 0.0 **** 0.06
32781 C 80.2420193293309 46.48645840643448 94.4566161128394 C 0.0 **** -0.24
32782 H 79.8152347748862 45.484394218448955 94.46292165621568 H 0.0 **** 0.06
32783 H 81.1577175548377 46.49524394245549 95.04863822672935 H 0.0 **** 0.06
32784 H 79.52641798899761 47.188935593536 94.88467232015914 H 0.0 **** 0.06
32785 H 80.46902422027243 46.779071872650434 93.43150358842011 H 0.0 **** 0.06
32786 C 3.409659599637523 90.6863187755439 28.4122597494557 C 0.0 **** -0.24
32787 H 3.0678780706079785 90.59343714694745 27.381645410593677 H 0.0 **** 0.06
32788 H 2.656872700673313 90.2721062517519 29.08285382616043 H 0.0 **** 0.06
32789 H 3.568385872406994 91.73839014835676 28.648018787740114 H 0.0 **** 0.06
32790 H 4.345416241462308 90.14138077895592 28.53428682175391 H 0.0 **** 0.06
32791 C 79.38003880726154 34.39294229617411 66.39126093979155 C 0.0 **** -0.24
32792 H 79.15286721583988 35.401627392793216 66.04794777283985 H 0.0 **** 0.06
32793 H 80.1036409174273 33.934511495462345 65.716624158826 H 0.0 **** 0.06
32794 H 78.4659322024657 33.79864680574474 66.40182427287175 H 0.0 **** 0.06
32795 H 79.79815291291538 34.43720754898129 67.39670895612414 H 0.0 **** 0.06
32796 C 115.24193053308272 85.44809608809243 109.4094828008094 C 0.0 **** -0.24
32797 H 115.59859381550102 85.32580351992931 108.38639901723782 H 0.0 **** 0.06
32798 H 115.52736528947452 86.43325381141719 109.77814091292565 H 0.0 **** 0.06
32799 H 115.68523428299645 84.68003313982518 110.04321984770795 H 0.0 **** 0.06
32800 H 114.15637129914252 85.35327757646522 109.42918400345955 H 0.0 **** 0.06
32801 C 7.284932023696939 66.89943624239791 26.795919385804723 C 0.0 **** -0.24
32802 H 7.201432256164566 67.97390642034438 26.63373997832514 H 0.0 **** 0.06
32803 H 6.404231324331192 66.54291123830734 27.33106965640542 H 0.0 **** 0.06
32804 H 8.177372183814583 66.68892129332755 27.384816270177453 H 0.0 **** 0.06
32805 H 7.356452388456944 66.39029575287583 25.83418427670705 H 0.0 **** 0.06
32806 C 46.91894912603959 76.65875096642516 89.5393646735317 C 0.0 **** -0.24
32807 H 47.093977148880526 75.7794879827863 88.9191240992811 H 0.0 **** 0.06
32808 H 47.864018231589796 77.00029473741237 89.95995677156677 H 0.0 **** 0.06
32809 H 46.233173269064565 76.40243978086075 90.34789525144826 H 0.0 **** 0.06
32810 H 46.482529145680246 77.45084069801362 88.93139347554174 H 0.0 **** 0.06
32811 C 87.15763723799923 56.95050081490339 22.33796281598539 C 0.0 **** -0.24
32812 H 87.49931600413719 57.28847839697852 21.360384049139878 H 0.0 **** 0.06
32813 H 87.1988321588352 57.78005996102452 23.04488731074704 H 0.0 **** 0.06
32814 H 87.79962737234975 56.14245472836083 22.68850487621466 H 0.0 **** 0.06
32815 H 86.13182466585253 56.59051358136942 22.258998814669102 H 0.0 **** 0.06
32816 C 89.23170542929824 70.98387459902978 59.085815541280795 C 0.0 **** -0.24
32817 H 89.66409495580461 71.33402205843947 60.02298820102948 H 0.0 **** 0.06
32818 H 89.99569869804043 70.46870265194855 58.503784021561955 H 0.0 **** 0.06
32819 H 88.85477954663969 71.83518294456272 58.51879389629613 H 0.0 **** 0.06
32820 H 88.41157111184413 70.29701066993726 59.298148480627276 H 0.0 **** 0.06
32821 C 71.91180498582469 38.44720447027822 1.9882718740903442 C 0.0 **** -0.24
32822 H 72.29810940994429 38.10497456486627 2.9485219231110875 H 0.0 **** 0.06
32823 H 72.47677068939666 37.978151223203525 1.181921185480462 H 0.0 **** 0.06
32824 H 72.0134622924931 39.52998851845845 1.9216235456826212 H 0.0 **** 0.06
32825 H 70.8601989291507 38.17390004215781 1.9010597793064221 H 0.0 **** 0.06
32826 C 87.14878464254753 14.366076663016571 107.81862639413379 C 0.0 **** -0.24
32827 H 86.73545660593362 13.412949851332314 108.14815599296452 H 0.0 **** 0.06
32828 H 87.92037316473264 14.187016395937746 107.06868024568375 H 0.0 **** 0.06
32829 H 87.58493913667547 14.886350477379551 108.67128222158664 H 0.0 **** 0.06
32830 H 86.35606350060766 14.976582190317316 107.38677373525535 H 0.0 **** 0.06
32831 C 48.645197496511315 8.933541868429643 94.58792381218018 C 0.0 **** -0.24
32832 H 49.10118849500759 8.096972467280636 95.11794780648904 H 0.0 **** 0.06
32833 H 48.8189101783594 8.823078904661742 93.51721216487329 H 0.0 **** 0.06
32834 H 49.088891201287254 9.867250715224287 94.93373915178006 H 0.0 **** 0.06
32835 H 47.57321432372976 8.9468667490533 94.78278538645782 H 0.0 **** 0.06
32836 C 59.882600779206385 89.88193100915532 101.87612729336698 C 0.0 **** -0.24
32837 H 60.888379007995255 90.284236496642 101.75125513375662 H 0.0 **** 0.06
32838 H 59.46379289818019 89.63953692651361 100.8993782842573 H 0.0 **** 0.06
32839 H 59.2532678828626 90.62392540456557 102.3670661392461 H 0.0 **** 0.06
32840 H 59.92575860348761 88.98068974944258 102.4877719239301 H 0.0 **** 0.06
32841 C 31.86842990697818 98.38867615477608 44.839145572453475 C 0.0 **** -0.24
32842 H 32.43251407431268 97.50052160327493 45.12338153378258 H 0.0 **** 0.06
32843 H 31.407035338369525 98.82508100097425 45.725310030055056 H 0.0 **** 0.06
32844 H 31.092613984829256 98.1130231407669 44.12407236808804 H 0.0 **** 0.06
32845 H 32.54138300843276 99.11509663840735 44.38374580391985 H 0.0 **** 0.06
32846 C 41.911010707440255 97.99566967976267 74.02803672077897 C 0.0 **** -0.24
32847 H 42.059213634966454 98.83723972719957 73.35021861156949 H 0.0 **** 0.06
32848 H 41.92096031391361 98.35403357022659 75.05807019621204 H 0.0 **** 0.06
32849 H 42.7120748548835 97.2705140629094 73.88643132202765 H 0.0 **** 0.06
32850 H 40.95135496478383 97.52413248747871 73.81590917339281 H 0.0 **** 0.06
32851 C 35.56481309075414 41.14090878848616 54.504106550589995 C 0.0 **** -0.24
32852 H 34.49552474838873 40.93553372351833 54.460459772313015 H 0.0 **** 0.06
32853 H 35.79354936733722 42.01177769783061 53.88989762360251 H 0.0 **** 0.06
32854 H 36.11610120474961 40.27713281206658 54.130026160994646 H 0.0 **** 0.06
32855 H 35.85511897739161 41.336979777661526 55.535882770004434 H 0.0 **** 0.06
32856 C 50.00984453267766 52.82570585768093 93.3673453201196 C 0.0 **** -0.24
32857 H 50.464461388833 53.08930092437453 92.41219573502082 H 0.0 **** 0.06
32858 H 49.22879761116251 52.08173875637448 93.2037869632926 H 0.0 **** 0.06
32859 H 49.574550980604506 53.716369528501616 93.82059503996214 H 0.0 **** 0.06
32860 H 50.770830228740564 52.41507363914883 94.0299156385529 H 0.0 **** 0.06
32861 C 42.67872638176362 6.1405746770658425 29.269296300212886 C 0.0 **** -0.24
32862 H 43.25174768590235 5.388398474348406 28.727512142440503 H 0.0 **** 0.06
32863 H 43.05905637029668 7.132394484175876 29.02665443509312 H 0.0 **** 0.06
32864 H 42.77262563582996 5.9661323286118915 30.340780461132773 H 0.0 **** 0.06
32865 H 41.62947612526312 6.0733547444021525 28.981275552759257 H 0.0 **** 0.06
32866 C 111.92852322042512 14.937793731733187 61.13479073252108 C 0.0 **** -0.24
32867 H 111.30548216144592 14.070609408545003 60.91291730623465 H 0.0 **** 0.06
32868 H 112.94082747712093 14.760478746703413 60.77209385905837 H 0.0 **** 0.06
32869 H 111.95135365470162 15.102721900606053 62.212576933580976 H 0.0 **** 0.06
32870 H 111.5147355621728 15.817633320276233 60.64181645208606 H 0.0 **** 0.06
32871 C 90.27855585247458 39.146322911911426 34.90683457453201 C 0.0 **** -0.24
32872 H 90.77735193351106 39.970529170702264 35.4190632368383 H 0.0 **** 0.06
32873 H 90.80838651010053 38.92167881482925 33.980629353530134 H 0.0 **** 0.06
32874 H 89.25157021846795 39.43040023156135 34.67811178157734 H 0.0 **** 0.06
32875 H 90.27893498951084 38.266784127668444 35.5492112796626 H 0.0 **** 0.06
32876 C 88.07535897046711 102.1211836911596 73.90356013009111 C 0.0 **** -0.24
32877 H 87.01388916719759 102.0094877057516 73.68188597540055 H 0.0 **** 0.06
32878 H 88.2208453327429 102.13625591989305 74.98350831241547 H 0.0 **** 0.06
32879 H 88.43929253015915 103.05509911640952 73.4742922148825 H 0.0 **** 0.06
32880 H 88.62633832560616 101.2846690709318 73.47305388532217 H 0.0 **** 0.06
32881 C 84.3947473943849 44.92463826877419 50.94169695144171 C 0.0 **** -0.24
32882 H 84.48858038249374 45.385716281478985 51.924999550265625 H 0.0 **** 0.06
32883 H 84.44256859127803 45.69760942752332 50.17368044034379 H 0.0 **** 0.06
32884 H 83.43967996400796 44.40328842426975 50.87454698485445 H 0.0 **** 0.06
32885 H 85.20796157118369 44.21411411421663 50.79403966334027 H 0.0 **** 0.06
32886 C 18.559169708392062 78.33320316875667 7.279307243358048 C 0.0 **** -0.24
32887 H 19.11341128415512 77.43702089282444 7.5607219529270395 H 0.0 **** 0.06
32888 H 18.423699897331687 78.96635848140315 8.155963855305004 H 0.0 **** 0.06
32889 H 17.58537834591766 78.04735918783317 6.882518740348829 H 0.0 **** 0.06
32890 H 19.115451940242508 78.87936266385618 6.517791378361039 H 0.0 **** 0.06
32891 C 108.98586494143093 107.94805813977746 89.01209270951037 C 0.0 **** -0.24
32892 H 108.1149003371434 108.59266962756507 89.12525265882778 H 0.0 **** 0.06
32893 H 108.85174576209647 107.0476033173617 89.61211917101474 H 0.0 **** 0.06
32894 H 109.87733931879382 108.47913411966562 89.34694989911304 H 0.0 **** 0.06
32895 H 109.09954513472744 107.67182822649485 87.96402669149725 H 0.0 **** 0.06
32896 C 84.09443194691747 77.125360257519 47.78428199004571 C 0.0 **** -0.24
32897 H 83.69440274775839 76.33684061137866 48.42228982978315 H 0.0 **** 0.06
32898 H 83.2712020061051 77.65742841545895 47.305704313159424 H 0.0 **** 0.06
32899 H 84.73589671524273 76.68483886819527 47.020619469300925 H 0.0 **** 0.06
32900 H 84.67397596460884 77.82175177838394 48.389287828828685 H 0.0 **** 0.06
32901 C 27.40987970240377 54.621548313846176 78.90393243249619 C 0.0 **** -0.24
32902 H 26.40151266752514 54.84466161644926 79.25402383588167 H 0.0 **** 0.06
32903 H 28.084419986887553 54.55436977372531 79.75669847561852 H 0.0 **** 0.06
32904 H 27.745525109429934 55.41528447723422 78.23541040387164 H 0.0 **** 0.06
32905 H 27.40553763137916 53.67290321622016 78.3674567486112 H 0.0 **** 0.06
32906 C 67.18178277422652 17.607534252582994 74.56255138995235 C 0.0 **** -0.24
32907 H 67.47259551570914 16.871599724416157 75.3122138989237 H 0.0 **** 0.06
32908 H 67.79030013418947 18.505058717698844 74.68109299964037 H 0.0 **** 0.06
32909 H 66.13033195151166 17.861915585980498 74.69097950992217 H 0.0 **** 0.06
32910 H 67.33669189614233 17.192597791587445 73.56631222027417 H 0.0 **** 0.06
32911 C 1.6771897122947053 103.2475268364544 20.320462643858974 C 0.0 **** -0.24
32912 H 0.6593928870239552 103.63369338207752 20.27003898086835 H 0.0 **** 0.06
32913 H 2.1357497732307706 103.30435283530946 19.333243301037243 H 0.0 **** 0.06
32914 H 1.6568232423245206 102.20981198889444 20.65242441871456 H 0.0 **** 0.06
32915 H 2.257078942164398 103.84332701009316 21.025274095922498 H 0.0 **** 0.06
32916 C 50.24374791613265 99.49511063226564 112.10098146058715 C 0.0 **** -0.24
32917 H 50.880976048780205 98.88430495404918 111.4614798697192 H 0.0 **** 0.06
32918 H 49.20601088689215 99.18175479720304 111.98726458277025 H 0.0 **** 0.06
32919 H 50.3402619862967 100.54292209574226 111.81637518459235 H 0.0 **** 0.06
32920 H 50.54872820670656 99.37193499917129 113.1407566329161 H 0.0 **** 0.06
32921 C 15.01324118783008 103.2608299900138 109.9925846344869 C 0.0 **** -0.24
32922 H 15.666472271083556 102.77226112691704 109.26964814426903 H 0.0 **** 0.06
32923 H 14.946856270282698 102.64900587501938 110.89301504780467 H 0.0 **** 0.06
32924 H 14.020582707803712 103.38194720654155 109.55972637079235 H 0.0 **** 0.06
32925 H 15.420726220550335 104.23960983316215 110.24655027483148 H 0.0 **** 0.06
32926 C 70.73339980316439 98.38150148257526 2.0341246016000127 C 0.0 **** -0.24
32927 H 71.59464495772517 98.16445315411744 2.666076631007968 H 0.0 **** 0.06
32928 H 70.02997533364316 99.00860202555788 2.582274675102809 H 0.0 **** 0.06
32929 H 70.2453456810826 97.44811227800778 1.7525924484476434 H 0.0 **** 0.06
32930 H 71.06366011957141 98.90419863832875 1.1371640182288445 H 0.0 **** 0.06
32931 C 38.56628603607885 45.732924845082266 47.83448340627888 C 0.0 **** -0.24
32932 H 39.54739190262677 45.2819394143485 47.68258532619029 H 0.0 **** 0.06
32933 H 38.68873563966338 46.74635949102469 48.219901372376455 H 0.0 **** 0.06
32934 H 38.00004525893854 45.13785853465623 48.55110606343777 H 0.0 **** 0.06
32935 H 38.03139817492897 45.76732361426309 46.88573253497589 H 0.0 **** 0.06
32936 C 6.321950197100266 43.71163858097901 106.29197158372389 C 0.0 **** -0.24
32937 H 7.36336704989089 43.861697565072234 106.00528733292958 H 0.0 **** 0.06
32938 H 5.675240300859992 43.9482069703422 105.44694479667517 H 0.0 **** 0.06
32939 H 6.0786657229828585 44.36354993943581 107.130165906264 H 0.0 **** 0.06
32940 H 6.173047782530254 42.671704122313315 106.58465061378925 H 0.0 **** 0.06
32941 C 16.000036802792636 17.821877731104735 36.9619462991794 C 0.0 **** -0.24
32942 H 15.643408810686665 17.188812801432704 36.14827134361343 H 0.0 **** 0.06
32943 H 16.721211427553953 17.267959499586482 37.563600147486966 H 0.0 **** 0.06
32944 H 15.157384313737538 18.118740288694568 37.58629472191984 H 0.0 **** 0.06
32945 H 16.47711994384676 18.710544928112483 36.54826180025026 H 0.0 **** 0.06
32946 C 42.64228228610051 33.63856969765098 81.55149733425418 C 0.0 **** -0.24
32947 H 42.985512659786195 33.55730678167265 80.52094082941824 H 0.0 **** 0.06
32948 H 43.501762944049915 33.637730268984654 82.22170762661796 H 0.0 **** 0.06
32949 H 41.99694097639599 32.792685482862424 81.78730660937987 H 0.0 **** 0.06
32950 H 42.08381979107446 34.56663665957434 81.67692841707282 H 0.0 **** 0.06
32951 C 41.24882127650005 63.10770835371166 24.134027699713698 C 0.0 **** -0.24
32952 H 41.09934575909057 64.18600541985698 24.090795828747048 H 0.0 **** 0.06
32953 H 42.0210119219293 62.8765056223711 24.8682711883254 H 0.0 **** 0.06
32954 H 41.559891385173955 62.743927868032074 23.153911486034342 H 0.0 **** 0.06
32955 H 40.316200999635214 62.622396971294904 24.422324167961747 H 0.0 **** 0.06
32956 C 107.19202822907394 51.525696645167386 86.82536393960942 C 0.0 **** -0.24
32957 H 106.66459426917928 51.211498249545855 87.72616711153069 H 0.0 **** 0.06
32958 H 108.2629921252016 51.3791138101806 86.9610374042847 H 0.0 **** 0.06
32959 H 106.99002328132804 52.57965170298481 86.63520276201274 H 0.0 **** 0.06
32960 H 106.8482680791754 50.93210029790117 85.9781397059175 H 0.0 **** 0.06
32961 C 100.78088076696942 69.1576407241504 96.44179967289323 C 0.0 **** -0.24
32962 H 101.09063750550033 68.20653870739238 96.87353478225401 H 0.0 **** 0.06
32963 H 100.77381512406136 69.92328284393155 97.21759460454595 H 0.0 **** 0.06
32964 H 99.77907767904067 69.05662305769175 96.02223840523152 H 0.0 **** 0.06
32965 H 101.47722353673575 69.44259800295075 95.65368699062755 H 0.0 **** 0.06
32966 C 92.668892191621 85.26664985511994 82.29660600831478 C 0.0 **** -0.24
32967 H 93.5613676714701 84.68739792840236 82.06201653900692 H 0.0 **** 0.06
32968 H 92.11845522765557 85.4732571109835 81.37855689949355 H 0.0 **** 0.06
32969 H 92.96013711087657 86.20702668085562 82.7655158378938 H 0.0 **** 0.06
32970 H 92.03691225134904 84.70073403495255 82.98028878245323 H 0.0 **** 0.06
32971 C 54.20062005047725 76.28107554444057 67.12832089943355 C 0.0 **** -0.24
32972 H 54.2820340098545 77.35939417473189 66.99536528813226 H 0.0 **** 0.06
32973 H 53.16224311048796 76.0166511958625 67.3294817244202 H 0.0 **** 0.06
32974 H 54.82364942418403 75.9705118034229 67.96745149327836 H 0.0 **** 0.06
32975 H 54.534633795413676 75.77686812532039 66.22145913724522 H 0.0 **** 0.06
32976 C 100.2740907947977 54.717461745183414 57.07753243825516 C 0.0 **** -0.24
32977 H 99.51145925577492 55.10414967048712 56.40177869630172 H 0.0 **** 0.06
32978 H 101.18435506795953 54.50711516746753 56.51471460894328 H 0.0 **** 0.06
32979 H 99.91464947866149 53.800029162717465 57.54473476173226 H 0.0 **** 0.06
32980 H 100.48651825883906 55.45880999952033 57.84815940383571 H 0.0 **** 0.06
32981 C 97.28181040562765 50.472666221517784 84.04954380847836 C 0.0 **** -0.24
32982 H 98.24030564384063 50.18483084151717 83.61754122588741 H 0.0 **** 0.06
32983 H 97.1532899788937 49.97719125362602 85.0122777560724 H 0.0 **** 0.06
32984 H 96.47654968162101 50.1746203802806 83.37701092389926 H 0.0 **** 0.06
32985 H 97.2561300178478 51.55333230428914 84.18945051902959 H 0.0 **** 0.06
32986 C 101.70742233913344 106.6306145388094 25.7430047266392 C 0.0 **** -0.24
32987 H 101.71129319754888 105.65039640828068 25.265202418124574 H 0.0 **** 0.06
32988 H 102.1026310404857 107.37297061520528 25.04966852653508 H 0.0 **** 0.06
32989 H 102.32794798959183 106.60056129127463 26.63758013796734 H 0.0 **** 0.06
32990 H 100.68607140027495 106.89601763232353 26.017413285045343 H 0.0 **** 0.06
32991 C 72.56842382492184 76.68870494984469 113.3932080437401 C 0.0 **** -0.24
32992 H 71.92549436327431 75.80822174445854 113.40548093536421 H 0.0 **** 0.06
32993 H 73.08163707159986 76.77672715975763 114.35105032526408 H 0.0 **** 0.06
32994 H 71.96162657588847 77.57788051164272 113.2224144035185 H 0.0 **** 0.06
32995 H 73.30274891403947 76.59093310586695 112.59358069960109 H 0.0 **** 0.06
32996 C 99.68667850273874 85.35240745443548 1.5075696690324492 C 0.0 **** -0.24
32997 H 99.18468962893678 86.06078503427773 2.1674666266329865 H 0.0 **** 0.06
32998 H 98.94674092648236 84.69000429077346 1.057351903802143 H 0.0 **** 0.06
32999 H 100.40035987314458 84.76292251618509 2.0817463603334403 H 0.0 **** 0.06
33000 H 100.21153616923148 85.8967836887345 0.722380829813801 H 0.0 **** 0.06
33001 C 11.359720783087937 11.60227739441244 6.3246795002205545 C 0.0 **** -0.24
33002 H 10.704562849461581 12.026954004428248 5.564472700339991 H 0.0 **** 0.06
33003 H 11.122733917358346 10.546250333245553 6.45998919870749 H 0.0 **** 0.06
33004 H 11.213603704200835 12.131730151778953 7.266585638875966 H 0.0 **** 0.06
33005 H 12.39693462265609 11.705056802535196 6.008023037044538 H 0.0 **** 0.06
33006 C 76.96745684124409 90.03060097717304 37.19743742519955 C 0.0 **** -0.24
33007 H 77.53215309788447 90.79691546657443 37.72967127282044 H 0.0 **** 0.06
33008 H 75.92695834240192 90.34347992041432 37.1069817476523 H 0.0 **** 0.06
33009 H 77.01872047815306 89.09213531463462 37.74858780178022 H 0.0 **** 0.06
33010 H 77.39327737045949 89.89219823267075 36.203111939475264 H 0.0 **** 0.06
33011 C 11.796257029142936 108.57998656806572 79.06061991899975 C 0.0 **** -0.24
33012 H 11.9661061668358 109.32056293255098 78.2789950212944 H 0.0 **** 0.06
33013 H 12.038004217895718 109.01383302542742 80.03071119396807 H 0.0 **** 0.06
33014 H 12.430274015713394 107.71114780870477 78.88124523281755 H 0.0 **** 0.06
33015 H 10.749209691690822 108.27520808950786 79.0490192201051 H 0.0 **** 0.06
33016 C 93.30190890498612 37.816830282455406 74.11367934719536 C 0.0 **** -0.24
33017 H 92.45157734599304 37.22458450157654 73.77689205504186 H 0.0 **** 0.06
33018 H 93.39943169169666 37.729244799151246 75.19575080552457 H 0.0 **** 0.06
33019 H 93.14572410806323 38.86226481987616 73.84606294402698 H 0.0 **** 0.06
33020 H 94.21132518695268 37.451404140996786 73.6351227674937 H 0.0 **** 0.06
33021 C 25.298755534118285 14.07477906032226 92.25583633255052 C 0.0 **** -0.24
33022 H 25.372535096433673 13.051194459887462 92.62307561714144 H 0.0 **** 0.06
33023 H 25.89316099019166 14.732949909302743 92.89072760375878 H 0.0 **** 0.06
33024 H 24.25623003015768 14.393564324196664 92.2777710601796 H 0.0 **** 0.06
33025 H 25.67134737343016 14.122424569180044 91.2327240382552 H 0.0 **** 0.06
33026 C 69.42984245923657 11.788307474111178 50.434853862619136 C 0.0 **** -0.24
33027 H 68.83543022024196 12.06392700416319 51.30581281987022 H 0.0 **** 0.06
33028 H 68.79652291836487 11.270224255139965 49.713679281498344 H 0.0 **** 0.06
33029 H 70.24261445599188 11.130996763774164 50.74310350350342 H 0.0 **** 0.06
33030 H 69.84171620950048 12.686529628020082 49.976559811004705 H 0.0 **** 0.06
33031 C 32.107279938249214 84.44877999165283 99.36576901122748 C 0.0 **** -0.24
33032 H 31.80440595560931 85.40614075339687 99.78977994750801 H 0.0 **** 0.06
33033 H 31.26120634601442 83.76162408895647 99.37876136134548 H 0.0 **** 0.06
33034 H 32.92285815422915 84.0313132754024 99.95803954871519 H 0.0 **** 0.06
33035 H 32.44188530446458 84.59478759812231 98.33964159484952 H 0.0 **** 0.06
33036 C 20.71300685530639 68.9633959340047 57.59624817364755 C 0.0 **** -0.24
33037 H 21.570545206560297 68.84043835426758 56.93391440211258 H 0.0 **** 0.06
33038 H 20.986321431464688 69.6156217127847 58.426594073697686 H 0.0 **** 0.06
33039 H 20.410857439106394 67.99041646168287 57.9822121168005 H 0.0 **** 0.06
33040 H 19.886713043335476 69.40745818259026 57.0420065702985 H 0.0 **** 0.06
33041 C 49.12475974717324 41.963344503923366 37.01239161561398 C 0.0 **** -0.24
33042 H 49.76282553146547 42.242757892294364 37.84976409558419 H 0.0 **** 0.06
33043 H 49.58834860444344 42.28500129122426 36.079255026109536 H 0.0 **** 0.06
33044 H 48.15231113661042 42.44477890971169 37.120452821878985 H 0.0 **** 0.06
33045 H 48.99459632731248 40.881542168556734 36.99932616303016 H 0.0 **** 0.06
33046 C 43.38061881300524 87.72231077695936 37.44183006472859 C 0.0 **** -0.24
33047 H 42.94662360689259 86.72362295782797 37.48912009889895 H 0.0 **** 0.06
33048 H 43.89509160750566 87.8489135362005 36.48928083407688 H 0.0 **** 0.06
33049 H 44.0905531593034 87.84851874433376 38.259528269066095 H 0.0 **** 0.06
33050 H 42.58889504951773 88.46641001798591 37.52973548914192 H 0.0 **** 0.06
33051 C 97.42514816665219 111.57933224793035 73.68130771860092 C 0.0 **** -0.24
33052 H 97.49781418167784 110.7796519878041 72.94382299521249 H 0.0 **** 0.06
33053 H 96.99215995810108 112.46485840677128 73.21576480720456 H 0.0 **** 0.06
33054 H 98.41910182250871 111.81628104404585 74.05999613607905 H 0.0 **** 0.06
33055 H 96.789882106184 111.25504474189763 74.50533088535025 H 0.0 **** 0.06
33056 C 78.37162878554568 13.093037857570948 94.64435278359677 C 0.0 **** -0.24
33057 H 79.0049451971766 12.21652118998881 94.78051591179693 H 0.0 **** 0.06
33058 H 78.86504926300768 13.796650101274452 93.97277651891312 H 0.0 **** 0.06
33059 H 78.20047688793727 13.570655251025073 95.60902226151846 H 0.0 **** 0.06
33060 H 77.41667440654328 12.788692736245224 94.21577986912995 H 0.0 **** 0.06
33061 C 113.60963485061899 70.45449243253711 48.871374212836734 C 0.0 **** -0.24
33062 H 112.54585041549262 70.37544448539518 48.644491592619495 H 0.0 **** 0.06
33063 H 113.7623345402883 70.32269371691052 49.94351159900942 H 0.0 **** 0.06
33064 H 113.97272977902645 71.43650630115428 48.56982432781182 H 0.0 **** 0.06
33065 H 114.15459176280001 69.68219764991306 48.32954838878174 H 0.0 **** 0.06
33066 C 115.76423007310902 84.84768401883002 77.91026440568976 C 0.0 **** -0.24
33067 H 115.72683023001456 83.94487634416629 77.29901632091753 H 0.0 **** 0.06
33068 H 115.31816696763235 85.6765365258945 77.36021731191883 H 0.0 **** 0.06
33069 H 116.80183437661361 85.08315776302658 78.1461943916876 H 0.0 **** 0.06
33070 H 115.20969117184369 84.6836366808406 78.83406504254903 H 0.0 **** 0.06
33071 C 102.84794767898426 22.31144013896442 28.83857879469366 C 0.0 **** -0.24
33072 H 102.5275281330346 22.91522169898989 27.989303386781785 H 0.0 **** 0.06
33073 H 101.98100385326259 22.052016039243124 29.445884377973016 H 0.0 **** 0.06
33074 H 103.55672068405745 22.87889836618151 29.440304186651815 H 0.0 **** 0.06
33075 H 103.3248806909312 21.400890376140257 28.47691245131722 H 0.0 **** 0.06
33076 C 95.70583213251808 52.2221903964398 6.543489150596372 C 0.0 **** -0.24
33077 H 95.96231926944071 53.2505999342078 6.797870215993811 H 0.0 **** 0.06
33078 H 94.63925311072006 52.063991641865385 6.703648158717044 H 0.0 **** 0.06
33079 H 96.27384155496264 51.54032243363571 7.17646461541824 H 0.0 **** 0.06
33080 H 95.94942011850176 52.035582383008915 5.498147183572996 H 0.0 **** 0.06
33081 C 64.50257476823043 113.9386941152538 29.469437043209666 C 0.0 **** -0.24
33082 H 64.1317162763466 113.27261010483244 30.248719178197575 H 0.0 **** 0.06
33083 H 63.694150882132476 114.17054550504398 28.77438852834797 H 0.0 **** 0.06
33084 H 65.31517777943321 113.45099157230229 28.931089456765847 H 0.0 **** 0.06
33085 H 64.86810763590161 114.86017523367101 29.921685622947336 H 0.0 **** 0.06
33086 C 112.34031174411496 103.89606364969387 26.554863341744635 C 0.0 **** -0.24
33087 H 111.89950954450329 103.48406995715601 25.646317111875902 H 0.0 **** 0.06
33088 H 112.81773215318698 103.09634591713083 27.121211169958144 H 0.0 **** 0.06
33089 H 111.55935386117476 104.35599440285105 27.160557202153456 H 0.0 **** 0.06
33090 H 113.08375244991028 104.64702282744048 26.28881495148292 H 0.0 **** 0.06
33091 C 94.41664288483642 39.79457689217797 77.79183205614292 C 0.0 **** -0.24
33092 H 95.0200224425842 40.52053692937402 77.24787192538948 H 0.0 **** 0.06
33093 H 94.48126860637927 39.99657113614714 78.86140881595081 H 0.0 **** 0.06
33094 H 94.78597493208144 38.789485054901235 77.58778108167945 H 0.0 **** 0.06
33095 H 93.37785211768187 39.87120715513359 77.46864453585738 H 0.0 **** 0.06
33096 C 51.886217648905074 102.62025022696767 31.98015219288783 C 0.0 **** -0.24
33097 H 52.85173969666738 102.12439421399554 31.880094486192434 H 0.0 **** 0.06
33098 H 51.33458180425316 102.17757911012166 32.809444496412254 H 0.0 **** 0.06
33099 H 51.317914510207004 102.49828494234231 31.058089525456978 H 0.0 **** 0.06
33100 H 52.04123187619109 103.68236089811496 32.17282323338554 H 0.0 **** 0.06
33101 C 96.23581101657595 33.22050641195463 70.32015893325917 C 0.0 **** -0.24
33102 H 96.8774702317271 33.95348176671658 69.82949282709288 H 0.0 **** 0.06
33103 H 96.65330042970015 32.22354615817737 70.18365499255839 H 0.0 **** 0.06
33104 H 95.23772048764073 33.26190033568109 69.88373435998443 H 0.0 **** 0.06
33105 H 96.17573356868803 33.4479372928986 71.38502442491 H 0.0 **** 0.06
33106 C 101.0332845661622 56.79103336492773 76.47323379756682 C 0.0 **** -0.24
33107 H 101.46007490903102 57.41559803776812 75.68856156175656 H 0.0 **** 0.06
33108 H 101.83758785136543 56.326141497948726 77.04434271327145 H 0.0 **** 0.06
33109 H 100.41204354110072 56.01744187862815 76.02396967888222 H 0.0 **** 0.06
33110 H 100.42535441406221 57.40597109143266 77.1371864335764 H 0.0 **** 0.06
33111 C 31.20453607144399 59.40576228471991 99.57088816190401 C 0.0 **** -0.24
33112 H 30.804625260349383 60.386310552448464 99.82788029168165 H 0.0 **** 0.06
33113 H 31.104766960914617 59.24267981108264 98.49782023251998 H 0.0 **** 0.06
33114 H 30.650882989243428 58.63564507973393 100.10807091809613 H 0.0 **** 0.06
33115 H 32.25701244875479 59.35739757704755 99.84929766855879 H 0.0 **** 0.06
33116 C 114.86240841252624 37.469291340375776 65.02643101819062 C 0.0 **** -0.24
33117 H 115.31056097973145 38.18519878035826 65.71655597444374 H 0.0 **** 0.06
33118 H 114.28992899527684 36.73196419671808 65.58949369004516 H 0.0 **** 0.06
33119 H 115.64828356849071 36.96714043994466 64.46219412868783 H 0.0 **** 0.06
33120 H 114.20006699791223 37.99512769728699 64.33796780804535 H 0.0 **** 0.06
33121 C 68.92024321000821 61.0027263791592 87.15332578590306 C 0.0 **** -0.24
33122 H 69.3868906680037 61.93701171055642 86.84333619530071 H 0.0 **** 0.06
33123 H 69.62021207506339 60.43237860629439 87.76369988710064 H 0.0 **** 0.06
33124 H 68.64906690205379 60.42255673131072 86.2715598771673 H 0.0 **** 0.06
33125 H 68.02412991630081 61.22055209329015 87.73462217552623 H 0.0 **** 0.06
33126 C 34.25971613378039 83.02341774138488 81.76574215445484 C 0.0 **** -0.24
33127 H 33.74331366809878 83.97837541795673 81.86524545624837 H 0.0 **** 0.06
33128 H 33.5313354935773 82.21316286694679 81.7827771856167 H 0.0 **** 0.06
33129 H 34.95869633337037 82.90226644668142 82.59395629362074 H 0.0 **** 0.06
33130 H 34.806966850626 83.00287564334556 80.8226773125652 H 0.0 **** 0.06
33131 C 84.67269105263 102.44807213842773 70.99586247001483 C 0.0 **** -0.24
33132 H 84.33914394372584 101.87889720104822 71.86453033940654 H 0.0 **** 0.06
33133 H 85.18716293523477 101.78357045089349 70.3024782459627 H 0.0 **** 0.06
33134 H 85.35382395037476 103.23571736205828 71.31854892989799 H 0.0 **** 0.06
33135 H 83.8100949278845 102.89336103452949 70.50091880209021 H 0.0 **** 0.06
33136 C 17.370217550653535 111.97339183771862 73.30961663529656 C 0.0 **** -0.24
33137 H 17.727018291471495 112.72363828582047 72.60344024390969 H 0.0 **** 0.06
33138 H 16.285260010523245 111.89260878746506 73.23567850435035 H 0.0 **** 0.06
33139 H 17.6453428271075 112.26858820289294 74.32215885214342 H 0.0 **** 0.06
33140 H 17.823610656496953 111.01047103842961 73.07498764167242 H 0.0 **** 0.06
33141 C 105.64640779695713 82.50170801284162 100.82237606517117 C 0.0 **** -0.24
33142 H 105.97317565238052 83.52978319352414 100.98177745717089 H 0.0 **** 0.06
33143 H 104.92941692722007 82.47171015290542 100.001831864848 H 0.0 **** 0.06
33144 H 105.17664332677066 82.12551298292738 101.73061289490778 H 0.0 **** 0.06
33145 H 106.50830700837236 81.88132550703793 100.57497174351124 H 0.0 **** 0.06
33146 C 61.15309493082714 83.42711947564254 65.34291086408018 C 0.0 **** -0.24
33147 H 62.14135396292713 82.99071425040034 65.48980930545915 H 0.0 **** 0.06
33148 H 60.507225155801734 82.70436933643958 64.84425464165867 H 0.0 **** 0.06
33149 H 61.23922987422833 84.32284575201578 64.72837386474305 H 0.0 **** 0.06
33150 H 60.72543674130344 83.69005300613998 66.3112068271181 H 0.0 **** 0.06
33151 C 18.53116417053655 83.66996945954364 45.32373954236675 C 0.0 **** -0.24
33152 H 18.628416849790785 83.16742127730316 46.285810623988766 H 0.0 **** 0.06
33153 H 19.31713624920449 84.4195821776247 45.225097297659374 H 0.0 **** 0.06
33154 H 17.557138867827504 84.15418432290289 45.263638328249044 H 0.0 **** 0.06
33155 H 18.624234585208363 82.9380085124937 44.521031213043216 H 0.0 **** 0.06
33156 C 37.209358378804296 59.181849491208084 11.014002805966783 C 0.0 **** -0.24
33157 H 36.86796289137604 60.17954239619121 10.736875436372557 H 0.0 **** 0.06
33158 H 37.90854217690918 59.255193068212066 11.84688231720989 H 0.0 **** 0.06
33159 H 37.70728906928693 58.718605570642495 10.16135532120822 H 0.0 **** 0.06
33160 H 36.35457654279571 58.57391036495352 11.30887317388111 H 0.0 **** 0.06
33161 C 18.032255512336306 97.17770802835858 29.62122021544269 C 0.0 **** -0.24
33162 H 17.83597439223246 98.04714036345148 30.250393335919853 H 0.0 **** 0.06
33163 H 18.349848279267807 96.34266717896647 30.24639396683847 H 0.0 **** 0.06
33164 H 18.819108698221722 97.41767076759494 28.905945782000913 H 0.0 **** 0.06
33165 H 17.123166266745223 96.90548627432928 29.08451392454333 H 0.0 **** 0.06
33166 C 36.026697135307046 108.06356103256618 25.049182675168296 C 0.0 **** -0.24
33167 H 36.766939514814595 108.12811713985406 25.846465099845098 H 0.0 **** 0.06
33168 H 36.53506640807177 107.94121444212863 24.09273531437752 H 0.0 **** 0.06
33169 H 35.432405964001546 108.97744062063248 25.030997800241465 H 0.0 **** 0.06
33170 H 35.3749728196191 107.20890446164921 25.226988867567385 H 0.0 **** 0.06
33171 C 102.07810037427366 77.74398208237254 71.21854058194327 C 0.0 **** -0.24
33172 H 101.65970026311115 78.23965713127387 70.3424805643321 H 0.0 **** 0.06
33173 H 101.33450945168266 77.72387909104468 72.01480054048511 H 0.0 **** 0.06
33174 H 102.9600024468171 78.28837632517268 71.55690462500951 H 0.0 **** 0.06
33175 H 102.35991420108532 76.72345791345553 70.95832918709351 H 0.0 **** 0.06
33176 C 83.2677239153665 82.45883876480514 111.7135184364713 C 0.0 **** -0.24
33177 H 82.85843891060205 81.62024252900892 112.27734440596393 H 0.0 **** 0.06
33178 H 83.97413603947294 82.08673897047271 110.97235169794439 H 0.0 **** 0.06
33179 H 83.77926709156469 83.1385953169713 112.39455083762155 H 0.0 **** 0.06
33180 H 82.45780512192891 82.98829443332693 111.2113234351437 H 0.0 **** 0.06
33181 C 12.498459765716433 1.6558672338333622 29.58858501452363 C 0.0 **** -0.24
33182 H 12.470799341842621 0.7028516357791261 30.116465398580658 H 0.0 **** 0.06
33183 H 11.669655073545897 2.2807459014678813 29.923235667937035 H 0.0 **** 0.06
33184 H 12.412345898080446 1.4806641342201061 28.516408813787564 H 0.0 **** 0.06
33185 H 13.442127436192322 2.1599402729816717 29.799360500435625 H 0.0 **** 0.06
33186 C 67.1554585047561 85.77007138035191 21.321086279333777 C 0.0 **** -0.24
33187 H 67.83725449024462 86.4540248441128 20.814834864836502 H 0.0 **** 0.06
33188 H 66.9610983363533 84.91101264377366 20.679391855486717 H 0.0 **** 0.06
33189 H 66.21840085600658 86.28488497544588 21.533760896744116 H 0.0 **** 0.06
33190 H 67.60514803342866 85.43425787078927 22.25467616908269 H 0.0 **** 0.06
33191 C 51.503599473753184 82.18703629792378 73.93103182831027 C 0.0 **** -0.24
33192 H 52.10724536060408 81.51831402377212 74.54611866788997 H 0.0 **** 0.06
33193 H 51.84149370476672 82.13071204007076 72.89595325323421 H 0.0 **** 0.06
33194 H 51.60955852270126 83.2089345333714 74.29404861022942 H 0.0 **** 0.06
33195 H 50.45723759341013 81.88743725501354 73.98840580205695 H 0.0 **** 0.06
33196 C 51.80819032111873 5.397946291556735 8.786790143247487 C 0.0 **** -0.24
33197 H 52.753159408058735 5.260562008463353 9.31174013938167 H 0.0 **** 0.06
33198 H 52.00320349797813 5.777572299815233 7.783071261365549 H 0.0 **** 0.06
33199 H 51.190627283218475 6.111338310789023 9.331816044779217 H 0.0 **** 0.06
33200 H 51.288476522679886 4.442616265584576 8.719272600140187 H 0.0 **** 0.06
33201 C 12.948614985006543 101.89248909319866 8.376361025811292 C 0.0 **** -0.24
33202 H 12.932830709605014 102.9206562583293 8.738161663211002 H 0.0 **** 0.06
33203 H 13.441323312123586 101.85740057561742 7.40424945550717 H 0.0 **** 0.06
33204 H 11.926439276722846 101.52558921508125 8.278432946307305 H 0.0 **** 0.06
33205 H 13.492557093510072 101.26662463302432 9.082814939379944 H 0.0 **** 0.06
33206 C 114.18000857778816 67.46781286358924 25.024458252267557 C 0.0 **** -0.24
33207 H 114.33309304616694 66.44463886825065 24.68102167242443 H 0.0 **** 0.06
33208 H 115.02478313985799 67.77449931774817 25.640801405476545 H 0.0 **** 0.06
33209 H 113.26300485879703 67.51963847693258 25.61242075645461 H 0.0 **** 0.06
33210 H 114.0975398345351 68.13187900900942 24.163384109504285 H 0.0 **** 0.06
33211 C 106.58640328004941 44.765977990726185 54.896320733865934 C 0.0 **** -0.24
33212 H 105.90867370775834 44.41869884008133 54.116029499317165 H 0.0 **** 0.06
33213 H 106.16005940734726 44.53939815693593 55.87395669854993 H 0.0 **** 0.06
33214 H 106.72785116635214 45.84322867306673 54.80153099673413 H 0.0 **** 0.06
33215 H 107.54811391007559 44.262547599922584 54.79336391346101 H 0.0 **** 0.06
33216 C 7.2464454382005705 86.19827030156186 59.00967469782523 C 0.0 **** -0.24
33217 H 6.767719509204651 85.49123063876259 59.68690282231694 H 0.0 **** 0.06
33218 H 6.608664858730746 86.35640844081112 58.13882974520965 H 0.0 **** 0.06
33219 H 8.20811879168988 85.79760455051309 58.68762357453153 H 0.0 **** 0.06
33220 H 7.4010124999284574 87.14659019098822 59.52380204804081 H 0.0 **** 0.06
33221 C 21.856889039874446 108.11692311414325 59.49228475832257 C 0.0 **** -0.24
33222 H 22.553537096789384 108.62861432868277 60.15640835058957 H 0.0 **** 0.06
33223 H 22.10753655596254 108.34774927975892 58.4572902590628 H 0.0 **** 0.06
33224 H 20.841676673878382 108.44973406597552 59.70469518041091 H 0.0 **** 0.06
33225 H 21.927840403602687 107.04118562652508 59.65201984026487 H 0.0 **** 0.06
33226 C 45.71212061275014 50.47912328367897 103.05170996806419 C 0.0 **** -0.24
33227 H 44.8248545542281 49.845649485655606 103.06476664254922 H 0.0 **** 0.06
33228 H 45.467677590143495 51.45342976867591 103.47579849671763 H 0.0 **** 0.06
33229 H 46.05368035762109 50.60425537357431 102.02424831477447 H 0.0 **** 0.06
33230 H 46.499860335156086 50.01234390381038 103.64326360774623 H 0.0 **** 0.06
33231 C 46.617023978745976 49.72695128618295 112.60029689504744 C 0.0 **** -0.24
33232 H 46.19042216919047 48.995099632634776 111.91350094672909 H 0.0 **** 0.06
33233 H 47.69761376053083 49.590505796273646 112.64970278276564 H 0.0 **** 0.06
33234 H 46.18741976037734 49.58696760471207 113.59180347071872 H 0.0 **** 0.06
33235 H 46.39295304987019 50.73192881245723 112.24476931734979 H 0.0 **** 0.06
33236 C 25.362572430684494 88.09099578627587 55.17134825032649 C 0.0 **** -0.24
33237 H 25.026617476877362 87.82893438861561 54.167360337864544 H 0.0 **** 0.06
33238 H 24.50850802138541 88.10383519850262 55.848181069519924 H 0.0 **** 0.06
33239 H 25.826832579676932 89.07765015369074 55.152053146548745 H 0.0 **** 0.06
33240 H 26.088887911279002 87.35406933746197 55.515071717806485 H 0.0 **** 0.06
33241 C 72.06519521204397 22.45937227196618 88.19482946609867 C 0.0 **** -0.24
33242 H 71.37502201923982 21.723067177308117 88.60562415496986 H 0.0 **** 0.06
33243 H 73.07023680978334 22.038802561093085 88.16751576514235 H 0.0 **** 0.06
33244 H 72.06048958277019 23.35131006870417 88.82115235717856 H 0.0 **** 0.06
33245 H 71.75372717445899 22.723742609839224 87.18303171736125 H 0.0 **** 0.06
33246 C 69.39050486230859 18.52075206692237 82.76581928813351 C 0.0 **** -0.24
33247 H 68.47723441037166 18.944878759029024 82.34829061284671 H 0.0 **** 0.06
33248 H 70.23499444918053 19.16719973263332 82.52311697459004 H 0.0 **** 0.06
33249 H 69.55788281728645 17.530018877581654 82.34167544536291 H 0.0 **** 0.06
33250 H 69.29250847542052 18.44098780949784 83.84782060298943 H 0.0 **** 0.06
33251 C 38.22857628804879 21.26467731330979 86.19869881270182 C 0.0 **** -0.24
33252 H 37.36855130621576 20.865268014823272 85.66206230364952 H 0.0 **** 0.06
33253 H 38.274405809331945 22.34505832391818 86.05937502806938 H 0.0 **** 0.06
33254 H 39.140438822997496 20.808275578098574 85.81427105888727 H 0.0 **** 0.06
33255 H 38.12954428332624 21.040018151343247 87.26111894100887 H 0.0 **** 0.06
33256 C 61.08439984732331 111.67692738286337 33.15676059597473 C 0.0 **** -0.24
33257 H 60.115073223423536 111.33021424639708 33.51615244404867 H 0.0 **** 0.06
33258 H 60.945898042593626 112.56822882816635 32.544829606866074 H 0.0 **** 0.06
33259 H 61.549760438158415 110.8942130210799 32.55837087740298 H 0.0 **** 0.06
33260 H 61.72404601167028 111.91453210684722 34.00681373483343 H 0.0 **** 0.06
33261 C 3.576244331088006 50.183188918146755 31.02283159346416 C 0.0 **** -0.24
33262 H 4.431758193972982 49.92113044659246 30.40064679879579 H 0.0 **** 0.06
33263 H 3.098885821575635 49.27310322023985 31.387042340584557 H 0.0 **** 0.06
33264 H 2.8615574797051124 50.75799049646241 30.432896455993827 H 0.0 **** 0.06
33265 H 3.913737681718871 50.78136738525694 31.868903270599617 H 0.0 **** 0.06
33266 C 91.30412405860186 103.84321300179299 53.361135231291115 C 0.0 **** -0.24
33267 H 91.47058274625728 103.89024080329843 54.43713170980786 H 0.0 **** 0.06
33268 H 90.28814068429327 103.5014446669384 53.16446108416591 H 0.0 **** 0.06
33269 H 92.01429206713664 103.14721970910307 52.91439671413403 H 0.0 **** 0.06
33270 H 91.44518956464468 104.83368892395178 52.928434955483795 H 0.0 **** 0.06
33271 C 26.244162639773727 63.638192386911015 22.824831261898794 C 0.0 **** -0.24
33272 H 25.958736963239822 64.58403793917569 22.364271890609274 H 0.0 **** 0.06
33273 H 27.281247460705103 63.410833679480305 22.573453500976825 H 0.0 **** 0.06
33274 H 25.59709167982129 62.843354060729965 22.4526205504377 H 0.0 **** 0.06
33275 H 26.140775461682296 63.71461117667751 23.90709407569736 H 0.0 **** 0.06
33276 C 107.18004551342848 38.16489049768637 51.53393509354095 C 0.0 **** -0.24
33277 H 107.88470501345749 37.66164541386303 52.19611327113353 H 0.0 **** 0.06
33278 H 106.29467298387982 37.54304054412188 51.405227599582304 H 0.0 **** 0.06
33279 H 107.65011478534721 38.33417066450025 50.56464632442581 H 0.0 **** 0.06
33280 H 106.8916114754506 39.12211022277191 51.969333544189624 H 0.0 **** 0.06
33281 C 1.2967991524088234 78.57569687459167 99.71025981297365 C 0.0 **** -0.24
33282 H 0.47891604814890343 79.20274272619184 99.35835619007912 H 0.0 **** 0.06
33283 H 1.3437814806973165 77.66778716769137 99.10763864871615 H 0.0 **** 0.06
33284 H 1.129348708623354 78.31019477215716 100.75421457825969 H 0.0 **** 0.06
33285 H 2.2369279254215257 79.1203944721892 99.62106904196423 H 0.0 **** 0.06
33286 C 40.05977219817214 25.572394456047846 82.53945915411293 C 0.0 **** -0.24
33287 H 39.63245953267612 26.421398171254907 83.0736250156707 H 0.0 **** 0.06
33288 H 39.76820308741725 24.647246898839484 83.03628808352897 H 0.0 **** 0.06
33289 H 41.146702826429824 25.65641040171198 82.53589455495683 H 0.0 **** 0.06
33290 H 39.692385107751896 25.565712357905454 81.51349394895493 H 0.0 **** 0.06
33291 C 5.225074079310797 80.96436645950799 87.6857248243778 C 0.0 **** -0.24
33292 H 5.083406072340511 81.58466880509903 86.80076848436296 H 0.0 **** 0.06
33293 H 4.2877239106218425 80.46347738867144 87.9310785398824 H 0.0 **** 0.06
33294 H 5.531693320492225 81.59125786499978 88.5231001086122 H 0.0 **** 0.06
33295 H 5.995265771292333 80.21908911273408 87.4876819653338 H 0.0 **** 0.06
33296 C 107.71847622068645 22.44573440625527 45.687768081427976 C 0.0 **** -0.24
33297 H 106.96409540755887 23.227393337440446 45.77042030795525 H 0.0 **** 0.06
33298 H 107.63268455769852 21.95882954821721 44.71609939773714 H 0.0 **** 0.06
33299 H 107.56621424384028 21.710286773070067 46.47860289482355 H 0.0 **** 0.06
33300 H 108.7103730989727 22.886375535898992 45.788726183266704 H 0.0 **** 0.06
33301 C 47.92726545545875 66.89616714878815 48.78644926893128 C 0.0 **** -0.24
33302 H 48.49799581776179 67.09069621404518 49.69375394490743 H 0.0 **** 0.06
33303 H 47.16164906278479 66.14730482547043 48.99262975315236 H 0.0 **** 0.06
33304 H 48.594961359855915 66.52787204695608 48.008476022806576 H 0.0 **** 0.06
33305 H 47.45176724614129 67.81805141575131 48.45204175099775 H 0.0 **** 0.06
33306 C 102.20439951626688 14.498304745924191 29.328680134682287 C 0.0 **** -0.24
33307 H 102.79429977668033 13.593824051446664 29.182294084272826 H 0.0 **** 0.06
33308 H 102.58267087844524 15.28777034298717 28.678805966351035 H 0.0 **** 0.06
33309 H 102.27889148403094 14.817158391294665 30.36841320751637 H 0.0 **** 0.06
33310 H 101.16116791598073 14.295286266715298 29.085277343640257 H 0.0 **** 0.06
33311 C 53.743409661112324 65.59453998718465 53.18135588990694 C 0.0 **** -0.24
33312 H 53.39286994239833 66.00617012524799 54.12772478175088 H 0.0 **** 0.06
33313 H 53.293542602018924 64.61419957956784 53.0222053109164 H 0.0 **** 0.06
33314 H 54.828976875618196 65.4961400282537 53.20853803610578 H 0.0 **** 0.06
33315 H 53.46020891319255 66.26152381170331 52.36733473202401 H 0.0 **** 0.06
33316 C 104.61610117526774 31.138622880300744 68.05790679044597 C 0.0 **** -0.24
33317 H 105.61354028937338 30.73606356438529 67.88069003414583 H 0.0 **** 0.06
33318 H 104.1416928637387 30.58956756311946 68.8714893529644 H 0.0 **** 0.06
33319 H 104.01762349177928 31.035858399753522 67.15242928781325 H 0.0 **** 0.06
33320 H 104.6920938819206 32.19200422054166 68.32617787028808 H 0.0 **** 0.06
33321 C 83.10045052897729 72.86729013449093 23.239136142644252 C 0.0 **** -0.24
33322 H 82.40157665819655 72.81166004871102 24.07332444266126 H 0.0 **** 0.06
33323 H 84.11643199415128 72.71540838906844 23.60617464206555 H 0.0 **** 0.06
33324 H 83.02740960707915 73.84681157913087 22.768017006466152 H 0.0 **** 0.06
33325 H 82.85832958704354 72.09366820341569 22.510299313486374 H 0.0 **** 0.06
33326 C 2.5291689331950096 115.68262253033504 94.55176530666989 C 0.0 **** -0.24
33327 H 2.2377238391283587 114.66651804741485 94.81935649275079 H 0.0 **** 0.06
33328 H 3.1935718681661953 115.65395594408915 93.68820261944353 H 0.0 **** 0.06
33329 H 3.0452602910051247 116.1445081574825 95.39363878357943 H 0.0 **** 0.06
33330 H 1.639646925634592 116.2630455964595 94.30845444957498 H 0.0 **** 0.06
33331 C 92.97748998755735 51.43341425545614 26.20379646765167 C 0.0 **** -0.24
33332 H 92.22711199431832 52.15061062450579 26.535191612062192 H 0.0 **** 0.06
33333 H 93.11245356105302 50.66976411242214 26.97069471840615 H 0.0 **** 0.06
33334 H 93.92267600699482 51.9479242490832 26.033563242606476 H 0.0 **** 0.06
33335 H 92.64687279953709 50.963965519644375 25.27756556521973 H 0.0 **** 0.06
33336 C 32.069525913784275 97.26415944460393 80.71799568075363 C 0.0 **** -0.24
33337 H 32.716928331173506 97.3325393873829 79.84301686905269 H 0.0 **** 0.06
33338 H 32.61512745688961 96.79333935544437 81.53676246474384 H 0.0 **** 0.06
33339 H 31.191677792901203 96.66569250289581 80.4744519475862 H 0.0 **** 0.06
33340 H 31.75673008436297 98.26441296786874 81.01781099073918 H 0.0 **** 0.06
33341 C 113.90686211238705 20.700714190542698 81.77803147695641 C 0.0 **** -0.24
33342 H 113.85550482964246 21.186565772488137 80.80375727919778 H 0.0 **** 0.06
33343 H 113.73178736079637 21.436762062271953 82.56155417284032 H 0.0 **** 0.06
33344 H 114.89393382473483 20.25586085973356 81.91010566364878 H 0.0 **** 0.06
33345 H 113.14723523482337 19.920050266958555 81.83449817376561 H 0.0 **** 0.06
33346 C 107.49256181954537 46.67455733803695 27.32183926150259 C 0.0 **** -0.24
33347 H 108.32302257640205 47.237565738154785 27.747849858000905 H 0.0 **** 0.06
33348 H 107.87705597361803 45.78512087310645 26.82054524063517 H 0.0 **** 0.06
33349 H 106.96186784274596 47.296832370037635 26.602342803776196 H 0.0 **** 0.06
33350 H 106.8102828814687 46.37595436804486 28.11783441286724 H 0.0 **** 0.06
33351 C 44.74693179444955 19.641571634365064 111.73094691264306 C 0.0 **** -0.24
33352 H 44.1463335454406 19.31679175494017 112.58069118982813 H 0.0 **** 0.06
33353 H 44.54328304074566 20.691773491875608 111.52328429050169 H 0.0 **** 0.06
33354 H 44.493463718333615 19.04214388458408 110.85660495586004 H 0.0 **** 0.06
33355 H 45.80450209180547 19.514741840411347 111.96433901917818 H 0.0 **** 0.06
33356 C 57.65692252264694 37.34525106009488 26.504508473294123 C 0.0 **** -0.24
33357 H 56.631539999354175 37.471750461946556 26.851750650897372 H 0.0 **** 0.06
33358 H 57.760912289684995 36.370156128301005 26.028269483968828 H 0.0 **** 0.06
33359 H 58.33781639363707 37.410918074995266 27.35293755948055 H 0.0 **** 0.06
33360 H 57.89547421014606 38.1284540905819 25.78544128728646 H 0.0 **** 0.06
33361 C 112.14653441799072 55.655222849849984 34.28425752297032 C 0.0 **** -0.24
33362 H 111.40186628500953 55.49335424100175 35.063948173438405 H 0.0 **** 0.06
33363 H 112.10397636296062 56.69352886424703 33.953382835908556 H 0.0 **** 0.06
33364 H 111.93861096520055 54.99695284018062 33.44098238318725 H 0.0 **** 0.06
33365 H 113.13950357015634 55.43905670357615 34.67822580110544 H 0.0 **** 0.06
33366 C 65.93883998282473 92.61332293924633 11.264988029456816 C 0.0 **** -0.24
33367 H 65.81319918810408 92.3431791869638 12.313613946401276 H 0.0 **** 0.06
33368 H 66.99162137268308 92.5408828438814 10.994674784918516 H 0.0 **** 0.06
33369 H 65.59149695519051 93.63508849531169 11.10884522108472 H 0.0 **** 0.06
33370 H 65.35594996767855 91.93307762933495 10.64337146906665 H 0.0 **** 0.06
33371 C 69.74830504001216 46.43991530763515 38.957652369343464 C 0.0 **** -0.24
33372 H 70.07389767508988 46.453500632188536 37.917537748185055 H 0.0 **** 0.06
33373 H 70.03311950962276 45.49225260399328 39.415118971903155 H 0.0 **** 0.06
33374 H 68.66512435190052 46.554608389158716 39.00047359682338 H 0.0 **** 0.06
33375 H 70.22307981000694 47.26038955891954 39.496580497917876 H 0.0 **** 0.06
33376 C 3.8321753178032907 40.16259830394921 81.31450257498341 C 0.0 **** -0.24
33377 H 3.985003620597439 39.97397655915245 82.37667009771417 H 0.0 **** 0.06
33378 H 3.3101720750297545 39.31548133407546 80.86734027931067 H 0.0 **** 0.06
33379 H 4.797405165760637 40.2940914652396 80.82598500601767 H 0.0 **** 0.06
33380 H 3.2341003222049522 41.06552535108921 81.18844050880085 H 0.0 **** 0.06
33381 C 50.854221982596584 23.401258996864087 65.7081301434658 C 0.0 **** -0.24
33382 H 50.46799043996157 24.41431550038446 65.82055020368429 H 0.0 **** 0.06
33383 H 50.52516852289216 22.991044575201585 64.75324768092712 H 0.0 **** 0.06
33384 H 50.48047262082906 22.778312662971942 66.51997419382101 H 0.0 **** 0.06
33385 H 51.9440120373813 23.422807259476087 65.73816203516976 H 0.0 **** 0.06
33386 C 7.202517317123409 96.26575569892444 24.43264281308194 C 0.0 **** -0.24
33387 H 7.018569853064122 96.58088056672733 23.406139948505256 H 0.0 **** 0.06
33388 H 8.22045729611284 95.883442599837 24.518302246604833 H 0.0 **** 0.06
33389 H 6.4960651798427875 95.48167465696679 24.703948572746526 H 0.0 **** 0.06
33390 H 7.075887943859783 97.11665883171901 25.101990565953344 H 0.0 **** 0.06
33391 C 85.50641071917107 34.44761096087521 86.8226841031099 C 0.0 **** -0.24
33392 H 84.79494706917234 35.168363344706464 86.41974362898782 H 0.0 **** 0.06
33393 H 86.09323914734989 34.02193803373366 86.00830240649684 H 0.0 **** 0.06
33394 H 84.96588917281014 33.65288778881282 87.33719757511817 H 0.0 **** 0.06
33395 H 86.17086575775579 34.94921054835744 87.52631889152597 H 0.0 **** 0.06
33396 C 69.36396929296694 47.35353843217928 18.53171978948425 C 0.0 **** -0.24
33397 H 69.82055806846029 47.57947199104427 19.494680431385852 H 0.0 **** 0.06
33398 H 70.14330175597476 47.1081745558684 17.809294629585764 H 0.0 **** 0.06
33399 H 68.80440863078147 48.220509682696786 18.18263357478852 H 0.0 **** 0.06
33400 H 68.68904586719583 46.50504611847566 18.640442695900592 H 0.0 **** 0.06
33401 C 72.3138839785779 61.145294211829764 41.33399501019828 C 0.0 **** -0.24
33402 H 72.97304812856089 60.34840374600657 41.6787061610037 H 0.0 **** 0.06
33403 H 72.39768526693643 61.24230386063141 40.25172886674781 H 0.0 **** 0.06
33404 H 72.60269815143167 62.085036106270195 41.80612335631656 H 0.0 **** 0.06
33405 H 71.28481682345353 60.905996183085506 41.59999263233682 H 0.0 **** 0.06
33406 C 60.0339903532514 74.08070948282452 106.65306471893024 C 0.0 **** -0.24
33407 H 60.51573764914531 73.12818100156366 106.87217097029297 H 0.0 **** 0.06
33408 H 60.61226746642387 74.61361788871318 105.89742933191144 H 0.0 **** 0.06
33409 H 59.9832609966499 74.67994069061837 107.56199817610373 H 0.0 **** 0.06
33410 H 59.02584497627856 73.90098763038776 106.27850022878216 H 0.0 **** 0.06
33411 C 44.76549297421661 71.19741943330229 81.23447802553714 C 0.0 **** -0.24
33412 H 44.438299544725965 70.69094826992261 80.32709227123331 H 0.0 **** 0.06
33413 H 45.05402109465143 72.22091604708535 80.99547436688654 H 0.0 **** 0.06
33414 H 45.62007668662562 70.66775139001174 81.65705118132163 H 0.0 **** 0.06
33415 H 43.950819093379096 71.20820934225975 81.95843216045989 H 0.0 **** 0.06
33416 C 50.666075177084736 58.39055715073941 85.31474450633887 C 0.0 **** -0.24
33417 H 50.704403892952485 57.30182642562198 85.273405721041 H 0.0 **** 0.06
33418 H 51.67739287273207 58.79310538713929 85.24769931065458 H 0.0 **** 0.06
33419 H 50.212727760782116 58.70226741402887 86.25668637853275 H 0.0 **** 0.06
33420 H 50.0699559176079 58.76471667211878 84.48315388193436 H 0.0 **** 0.06
33421 C 88.25166461372848 55.33566598909488 18.347023472795772 C 0.0 **** -0.24
33422 H 87.69585197678953 55.24598489804765 19.280382551711487 H 0.0 **** 0.06
33423 H 88.49033947392327 56.38349233918501 18.166236924266354 H 0.0 **** 0.06
33424 H 87.64486083999888 54.954193475655984 17.52543446843421 H 0.0 **** 0.06
33425 H 89.17410977926222 54.759056629104975 18.41690999559784 H 0.0 **** 0.06
33426 C 86.50146408701059 33.27591187242308 64.1218791253215 C 0.0 **** -0.24
33427 H 86.0285148261265 32.50900001011587 64.7362803099254 H 0.0 **** 0.06
33428 H 86.10821842816787 33.221428977979656 63.10568419177338 H 0.0 **** 0.06
33429 H 87.5787718512996 33.11293207067564 64.1034648719226 H 0.0 **** 0.06
33430 H 86.28990506275203 34.258945324515764 64.54213683695451 H 0.0 **** 0.06
33431 C 5.232734802850814 96.14037682314813 20.20866566870238 C 0.0 **** -0.24
33432 H 5.090196538518995 95.77372855153266 21.225498239005717 H 0.0 **** 0.06
33433 H 4.970716530534617 95.35436737707363 19.500226437796172 H 0.0 **** 0.06
33434 H 6.275448357598634 96.42384701416967 20.067730890578332 H 0.0 **** 0.06
33435 H 4.593795672419191 97.00738671321625 20.042833961458612 H 0.0 **** 0.06
33436 C 64.42007619298872 67.18852650690718 64.243114609251 C 0.0 **** -0.24
33437 H 64.53264709569828 68.22709557400412 63.93223258993174 H 0.0 **** 0.06
33438 H 65.40241631324656 66.71861896267552 64.29976612286475 H 0.0 **** 0.06
33439 H 63.80352801942436 66.65697237895301 63.51849395457316 H 0.0 **** 0.06
33440 H 63.943301063445915 67.1523584234439 65.22273847080425 H 0.0 **** 0.06
33441 C 73.50312272268076 20.387942007721364 29.259714921485426 C 0.0 **** -0.24
33442 H 72.95493540727762 20.251526804449128 30.192482403004135 H 0.0 **** 0.06
33443 H 73.3841583020282 19.501026930388207 28.636463183001126 H 0.0 **** 0.06
33444 H 74.5599301583126 20.539467685738146 29.479441036984937 H 0.0 **** 0.06
33445 H 73.11277606854856 21.258377354977 28.733238617191887 H 0.0 **** 0.06
33446 C 109.65155299508481 17.6106159787295 90.6297133652593 C 0.0 **** -0.24
33447 H 109.18754771105628 18.038381822378852 91.51871396266633 H 0.0 **** 0.06
33448 H 108.87912117608892 17.194158847300088 89.98227984551308 H 0.0 **** 0.06
33449 H 110.34376580119311 16.82221033220847 90.92436992997939 H 0.0 **** 0.06
33450 H 110.19435842475625 18.38938475641936 90.0939279462636 H 0.0 **** 0.06
33451 C 81.30214582736173 12.633124395968025 30.339652422293142 C 0.0 **** -0.24
33452 H 82.2228337504828 12.460043358333195 30.897242129015297 H 0.0 **** 0.06
33453 H 81.49697997284471 13.33128660537892 29.5249937246449 H 0.0 **** 0.06
33454 H 80.54717591457903 13.05120655996663 31.005219300309875 H 0.0 **** 0.06
33455 H 80.94331773196524 11.687951760554654 29.93015915311014 H 0.0 **** 0.06
33456 C 43.822208485008474 23.024043136643257 55.15970187114826 C 0.0 **** -0.24
33457 H 43.09915781479506 23.336144945996892 55.913444371208556 H 0.0 **** 0.06
33458 H 43.80032136272206 23.722251047874522 54.32310447251566 H 0.0 **** 0.06
33459 H 43.569019815735345 22.024508734283643 54.80623471432582 H 0.0 **** 0.06
33460 H 44.82079225296479 23.011934536341414 55.597030604517506 H 0.0 **** 0.06
33461 C 64.28394063160894 84.9708414145632 87.44672230854479 C 0.0 **** -0.24
33462 H 63.89953765738602 84.36712032685584 86.62484169996526 H 0.0 **** 0.06
33463 H 63.45882613398233 85.27001462421404 88.0943380146511 H 0.0 **** 0.06
33464 H 64.77401670298815 85.8588632148803 87.04725229253643 H 0.0 **** 0.06
33465 H 65.0032660908277 84.38598970623057 88.0207545095368 H 0.0 **** 0.06
33466 C 7.810205513754241 111.08710380022887 34.77876409677505 C 0.0 **** -0.24
33467 H 8.335855629968105 111.15423419814539 35.730364285881464 H 0.0 **** 0.06
33468 H 8.497851315858444 111.31955404116269 33.96598881673688 H 0.0 **** 0.06
33469 H 6.9829036439535965 111.7971691174255 34.76973914313807 H 0.0 **** 0.06
33470 H 7.422106008733014 110.07680692434518 34.64858514188646 H 0.0 **** 0.06
33471 C 20.370132403119527 59.123759936297915 71.42543604397768 C 0.0 **** -0.24
33472 H 19.304424466534783 59.29878672645077 71.57781995145507 H 0.0 **** 0.06
33473 H 20.902877576955973 59.29181095335878 72.36198398767735 H 0.0 **** 0.06
33474 H 20.744914634288733 59.80912533674734 70.66542546234295 H 0.0 **** 0.06
33475 H 20.52657717571566 58.097006196300185 71.09687971406525 H 0.0 **** 0.06
33476 C 46.18064607733308 5.510978703430908 35.15091317873174 C 0.0 **** -0.24
33477 H 47.13704823389067 5.685202724176861 35.643978553341356 H 0.0 **** 0.06
33478 H 45.44974321743214 6.235029325639857 35.51233304023964 H 0.0 **** 0.06
33479 H 45.83504948230899 4.502332504344025 35.37570941804046 H 0.0 **** 0.06
33480 H 46.30169263229149 5.623019934602496 34.07393639611476 H 0.0 **** 0.06
33481 C 110.42786234640106 88.48482103158815 95.00764654588227 C 0.0 **** -0.24
33482 H 109.66750027271968 87.74671668667821 95.26214217475541 H 0.0 **** 0.06
33483 H 110.73916894060272 89.01193125793469 95.90920050254437 H 0.0 **** 0.06
33484 H 110.0165930693381 89.19725405321273 94.29257289817048 H 0.0 **** 0.06
33485 H 111.28881871223224 87.98139853606824 94.56585408189585 H 0.0 **** 0.06
33486 C 0.011649744571926135 0.5936432519195449 25.72099985488029 C 0.0 **** -0.24
33487 H 0.272185576134234 1.6450239296806188 25.594128355020928 H 0.0 **** 0.06
33488 H -0.48297100919953095 0.45560139142679645 26.68245724290756 H 0.0 **** 0.06
33489 H 0.919139281551324 -0.010379662816959012 25.68884884431236 H 0.0 **** 0.06
33490 H -0.6586508667461999 0.2864009251988051 24.918822352481925 H 0.0 **** 0.06
33491 C 105.11593589809519 43.954605315738775 98.66547520051404 C 0.0 **** -0.24
33492 H 105.12762528115627 43.76941680403189 97.59160132473079 H 0.0 **** 0.06
33493 H 105.97797083220236 43.47250599460344 99.12710990576778 H 0.0 **** 0.06
33494 H 104.19928435480577 43.54749779778513 99.09352547129606 H 0.0 **** 0.06
33495 H 105.15753388392365 45.02752700242725 98.84941578233725 H 0.0 **** 0.06
33496 C 5.7165407903576835 6.602169929435547 5.563319208436781 C 0.0 **** -0.24
33497 H 6.7741747701471695 6.648265235047916 5.821679626165576 H 0.0 **** 0.06
33498 H 5.212157654581588 5.894715397747575 6.222168464160916 H 0.0 **** 0.06
33499 H 5.608774054300625 6.275928313356076 4.528661623105847 H 0.0 **** 0.06
33500 H 5.271056682401465 7.58977077159058 5.68076712031484 H 0.0 **** 0.06
33501 C 25.67824911109136 13.637372428973734 20.68433689765041 C 0.0 **** -0.24
33502 H 25.98270682260346 14.598708934246531 21.09837335768634 H 0.0 **** 0.06
33503 H 26.371205207562127 12.862927726172728 21.013591843744024 H 0.0 **** 0.06
33504 H 25.68623010893782 13.692755019128299 19.595663098891805 H 0.0 **** 0.06
33505 H 24.671752489803907 13.396128692455505 21.028068825195646 H 0.0 **** 0.06
33506 C 73.82921239706849 3.581805690808551 105.46086685466027 C 0.0 **** -0.24
33507 H 73.18969004106782 4.436300537427144 105.24349581098232 H 0.0 **** 0.06
33508 H 74.63759052360894 3.891501095417823 106.12446854913168 H 0.0 **** 0.06
33509 H 74.24955965231914 3.196317737765014 104.53142194647415 H 0.0 **** 0.06
33510 H 73.24174016069503 2.8013748613797134 105.94421106936973 H 0.0 **** 0.06
33511 C 69.79604395947705 39.2792526391158 26.84315926184081 C 0.0 **** -0.24
33512 H 69.76485822623778 39.75052376381183 27.825860930325604 H 0.0 **** 0.06
33513 H 70.4938299350505 38.44124780088089 26.8649827486299 H 0.0 **** 0.06
33514 H 70.1255410552469 40.00702212382683 26.10113174481843 H 0.0 **** 0.06
33515 H 68.80164971640798 38.91776141177198 26.58203723664826 H 0.0 **** 0.06
33516 C 22.481498822632773 50.584270116555444 45.858369943200984 C 0.0 **** -0.24
33517 H 22.024640113014613 51.48290072698867 45.444431939288535 H 0.0 **** 0.06
33518 H 22.574138526615485 50.68876551281491 46.93921781897109 H 0.0 **** 0.06
33519 H 23.46998501107913 50.4446663346722 45.42075550862012 H 0.0 **** 0.06
33520 H 21.857231639821805 49.720747891746036 45.62907450592391 H 0.0 **** 0.06
33521 C 101.20817182875709 65.07074768347192 60.90576728915835 C 0.0 **** -0.24
33522 H 100.13888555432675 65.10537113566373 60.69866925064218 H 0.0 **** 0.06
33523 H 101.71094407826283 65.86583261264997 60.35479941571293 H 0.0 **** 0.06
33524 H 101.60727574563515 64.10512115506268 60.5971591878548 H 0.0 **** 0.06
33525 H 101.3751198483705 65.20720911601447 61.97456064181358 H 0.0 **** 0.06
33526 C 108.26379168098012 90.59216652997962 56.734132529259455 C 0.0 **** -0.24
33527 H 109.05268779478999 89.86960833002986 56.52430368319064 H 0.0 **** 0.06
33528 H 108.63345806524242 91.33854789826798 57.437843563419534 H 0.0 **** 0.06
33529 H 107.40533689150323 90.07835896263074 57.166326572908446 H 0.0 **** 0.06
33530 H 107.96583042573397 91.08264824637953 55.80767459377881 H 0.0 **** 0.06
33531 C 50.06964850456609 85.41724434581323 37.974252165551945 C 0.0 **** -0.24
33532 H 51.13651588194995 85.19832559015529 37.93636943665075 H 0.0 **** 0.06
33533 H 49.79515625528012 86.03820297442525 37.121547681430684 H 0.0 **** 0.06
33534 H 49.84051482572323 85.94827570797457 38.89830195785248 H 0.0 **** 0.06
33535 H 49.505859336875915 84.4844703285716 37.941571713446024 H 0.0 **** 0.06
33536 C 7.8766833988214895 66.74604239265176 105.55808295377743 C 0.0 **** -0.24
33537 H 7.610169161415369 67.04793683275416 104.54524957326318 H 0.0 **** 0.06
33538 H 7.510385660832775 67.49055101446345 106.26650553949592 H 0.0 **** 0.06
33539 H 8.960543960445133 66.66837980993654 105.64160744686063 H 0.0 **** 0.06
33540 H 7.424437030522217 65.7801756338884 105.7795238883338 H 0.0 **** 0.06
33541 C 89.92309546432637 94.40588085027252 107.59541935008588 C 0.0 **** -0.24
33542 H 89.53985041887594 93.3881847039525 107.525110671919 H 0.0 **** 0.06
33543 H 90.6590583734031 94.46292155918911 108.3976858470999 H 0.0 **** 0.06
33544 H 89.10070013590202 95.08957842436985 107.80718604860748 H 0.0 **** 0.06
33545 H 90.39252038277137 94.68455062740014 106.65161905677225 H 0.0 **** 0.06
33546 C 17.760912378102045 107.1680396890502 100.8625153203597 C 0.0 **** -0.24
33547 H 17.178248904735074 106.77089925355023 101.69454199304971 H 0.0 **** 0.06
33548 H 17.373406387738044 106.76882115837975 99.9251140001412 H 0.0 **** 0.06
33549 H 18.804074903485542 106.87542281092476 100.979086425459 H 0.0 **** 0.06
33550 H 17.686824845081976 108.25478064632725 100.85411317996994 H 0.0 **** 0.06
33551 C 86.30117287301081 62.893785468956025 93.13562557581571 C 0.0 **** -0.24
33552 H 85.48004444953696 62.6765608633538 92.45267380349807 H 0.0 **** 0.06
33553 H 85.96428620208594 63.60044225574994 93.8942171147799 H 0.0 **** 0.06
33554 H 87.13102441127347 63.327848493567316 92.57838214625804 H 0.0 **** 0.06
33555 H 86.62795649590451 61.9724652393364 93.61569113125068 H 0.0 **** 0.06
33556 C 45.31413820404488 78.77024381136977 19.56476052542419 C 0.0 **** -0.24
33557 H 44.769802642723484 79.71043453206393 19.65536836395131 H 0.0 **** 0.06
33558 H 46.18362923456358 78.9150221012655 18.923273058434063 H 0.0 **** 0.06
33559 H 44.66270495034823 78.01332386570277 19.128355386256885 H 0.0 **** 0.06
33560 H 45.641323584964226 78.44325714113924 20.551826889803692 H 0.0 **** 0.06
33561 C 69.51404201149214 57.962662742776985 10.439472773050369 C 0.0 **** -0.24
33562 H 70.5587351033976 58.100947679948746 10.161474290662113 H 0.0 **** 0.06
33563 H 69.43258726883552 57.13871792394852 11.147793721086671 H 0.0 **** 0.06
33564 H 68.92862497397627 57.7365393174548 9.548650903440233 H 0.0 **** 0.06
33565 H 69.1372854766762 58.87632794560125 10.899402087146342 H 0.0 **** 0.06
33566 C 60.79531024490075 86.8789679997916 42.10228784038199 C 0.0 **** -0.24
33567 H 60.539724000775465 87.883633962119 41.764507485357626 H 0.0 **** 0.06
33568 H 59.882439738042024 86.32792001698243 42.325597135889154 H 0.0 **** 0.06
33569 H 61.41088055886422 86.94374300172177 42.99957037646317 H 0.0 **** 0.06
33570 H 61.349895740853185 86.36282736847619 41.31804783791833 H 0.0 **** 0.06
33571 C 106.68312451848317 71.52189744971957 86.13430250890842 C 0.0 **** -0.24
33572 H 106.06236776889034 72.41707951579201 86.17374472843224 H 0.0 **** 0.06
33573 H 106.39046910300112 70.91522775752105 85.2770620103874 H 0.0 **** 0.06
33574 H 106.5489073480386 70.94665262145179 87.0510144374234 H 0.0 **** 0.06
33575 H 107.7292797027934 71.8098997673651 86.03585205803523 H 0.0 **** 0.06
33576 C 21.62022025120754 63.09498793198192 2.265607093397932 C 0.0 **** -0.24
33577 H 20.945984248348424 62.72009243090207 1.49561960957476 H 0.0 **** 0.06
33578 H 22.614136026278914 63.23685136436339 1.8399842413014653 H 0.0 **** 0.06
33579 H 21.672753686513886 62.37654388260141 3.0824839706424427 H 0.0 **** 0.06
33580 H 21.24680913989073 64.04742465843913 2.642431992615343 H 0.0 **** 0.06
33581 C 49.41613750039738 33.338770425556646 17.87319399176934 C 0.0 **** -0.24
33582 H 49.80299135440714 32.931110531609534 18.807399048421274 H 0.0 **** 0.06
33583 H 48.40515804385589 32.96478935199076 17.704672846344664 H 0.0 **** 0.06
33584 H 50.05967179139367 33.030157567884686 17.048733360804277 H 0.0 **** 0.06
33585 H 49.39679452421946 34.42671139143661 17.931166531861663 H 0.0 **** 0.06
33586 C 51.643323847789475 19.115925406569687 10.716355738242747 C 0.0 **** -0.24
33587 H 51.752096869569584 19.454532001641226 11.747372050429053 H 0.0 **** 0.06
33588 H 52.60129413844501 18.73807358087251 10.356830263289947 H 0.0 **** 0.06
33589 H 51.323665584642185 19.94972330145141 10.091755716937417 H 0.0 **** 0.06
33590 H 50.89906182067671 18.32131856869116 10.67192020378226 H 0.0 **** 0.06
33591 C 31.148012272392663 29.276683676386654 14.689846174484572 C 0.0 **** -0.24
33592 H 31.938001914085618 29.82567551548877 15.200708961496673 H 0.0 **** 0.06
33593 H 30.656746543592092 29.931861405871416 13.970803996810545 H 0.0 **** 0.06
33594 H 30.41904445941637 28.925079764820453 15.419886011780974 H 0.0 **** 0.06
33595 H 31.579387024882806 28.421945351979332 14.168017828221394 H 0.0 **** 0.06
33596 C 33.39854696189863 52.936588964513135 65.08778303095494 C 0.0 **** -0.24
33597 H 34.42553943450521 52.84844015429411 65.44268135666317 H 0.0 **** 0.06
33598 H 33.337260781806776 52.57363355014161 64.0608463052805 H 0.0 **** 0.06
33599 H 33.0912230828025 53.98190289392426 65.1229311652782 H 0.0 **** 0.06
33600 H 32.742705200705444 52.34271181269048 65.72311284585146 H 0.0 **** 0.06
33601 C 45.50070552379509 32.59985892103197 78.38014186990861 C 0.0 **** -0.24
33602 H 45.14001374245214 31.736801393382564 77.821319314469 H 0.0 **** 0.06
33603 H 46.394963602388486 32.996610912530684 77.89930623043782 H 0.0 **** 0.06
33604 H 45.74022820081109 32.297350652904015 79.40011797421316 H 0.0 **** 0.06
33605 H 44.72737068019927 33.367510001124 78.40108403643464 H 0.0 **** 0.06
33606 C 9.037629822357804 73.75955956142883 25.897788899917657 C 0.0 **** -0.24
33607 H 9.06552780882328 73.25658061438477 24.930465007042812 H 0.0 **** 0.06
33608 H 8.058744387958246 74.22027832440426 26.038669020228554 H 0.0 **** 0.06
33609 H 9.808891413027904 74.5277180239325 25.929938032430016 H 0.0 **** 0.06
33610 H 9.214533987960198 73.03203437211317 26.690241798069962 H 0.0 **** 0.06
33611 C 75.05096272434878 14.69589539783934 46.69833710571413 C 0.0 **** -0.24
33612 H 74.59466796823301 13.746807831280353 46.417637227808044 H 0.0 **** 0.06
33613 H 74.32645677743085 15.299052440575714 47.24619594855935 H 0.0 **** 0.06
33614 H 75.36348533681127 15.22833263117871 45.80034783425472 H 0.0 **** 0.06
33615 H 75.91951249420339 14.508276864164404 47.33108843324385 H 0.0 **** 0.06
33616 C 115.43399912852422 23.038877961780997 74.58410073427444 C 0.0 **** -0.24
33617 H 116.04797114160687 22.275814388949755 75.0642850758361 H 0.0 **** 0.06
33618 H 115.5654596766257 22.983461925105814 73.5031729945299 H 0.0 **** 0.06
33619 H 115.73723403189496 24.024064861542797 74.93815851009487 H 0.0 **** 0.06
33620 H 114.38637418416388 22.869883396021407 74.83208326731565 H 0.0 **** 0.06
33621 C 60.07477458779081 50.974824653378676 71.92042978742688 C 0.0 **** -0.24
33622 H 60.22595629837964 51.304696835235006 70.89278103071518 H 0.0 **** 0.06
33623 H 61.01411019721007 51.05166830286797 72.46815529301341 H 0.0 **** 0.06
33624 H 59.735342005869896 49.93862813989452 71.92305821789932 H 0.0 **** 0.06
33625 H 59.322391603736506 51.60433445285025 72.39716440872814 H 0.0 **** 0.06
33626 C 31.765967736189083 7.523174823839531 54.439605278386665 C 0.0 **** -0.24
33627 H 31.348486629766853 8.024289504294275 53.56562860723898 H 0.0 **** 0.06
33628 H 32.372981514854544 8.228926532189671 55.00645476418828 H 0.0 **** 0.06
33629 H 32.38646194838171 6.687254721066774 54.11582433797122 H 0.0 **** 0.06
33630 H 30.95541843699509 7.152661867285374 55.06683371605638 H 0.0 **** 0.06
33631 C 97.35753122977815 114.74621256934778 6.22823170507416 C 0.0 **** -0.24
33632 H 97.66464278613563 115.36080935008864 7.074314343954747 H 0.0 **** 0.06
33633 H 97.0309570465376 113.7704754495246 6.58786335955222 H 0.0 **** 0.06
33634 H 98.19915697156483 114.62072310686298 5.546041748283182 H 0.0 **** 0.06
33635 H 96.53504733065222 115.23375745032992 5.704462860821456 H 0.0 **** 0.06
33636 C 78.97047941313696 94.09979699756894 40.384969886111605 C 0.0 **** -0.24
33637 H 77.97167588639141 94.30113352503808 39.997381590388926 H 0.0 **** 0.06
33638 H 79.55663246239152 93.58046543907645 39.62619920854402 H 0.0 **** 0.06
33639 H 78.89491833953261 93.4770112981293 41.277134743076346 H 0.0 **** 0.06
33640 H 79.45750248825959 95.04141389007442 40.64010662032727 H 0.0 **** 0.06
33641 C 61.62777732659407 23.973976799567964 27.940892897055818 C 0.0 **** -0.24
33642 H 60.78927947095423 24.261487388535414 28.57479157278084 H 0.0 **** 0.06
33643 H 62.26295762585795 23.269156053253027 28.47776464832276 H 0.0 **** 0.06
33644 H 62.20757355188351 24.859783093777907 27.68122944503915 H 0.0 **** 0.06
33645 H 61.25162366801953 23.506285378477287 27.031284912204683 H 0.0 **** 0.06
33646 C 69.82957379639728 73.11920369722455 63.42061023082198 C 0.0 **** -0.24
33647 H 69.20520625375178 72.88867559300661 64.28359545510138 H 0.0 **** 0.06
33648 H 70.63234934798515 73.79270106451438 63.72231591418267 H 0.0 **** 0.06
33649 H 69.22399929928355 73.59716862403229 62.64992114312979 H 0.0 **** 0.06
33650 H 70.25810702513627 72.1968048370997 63.025614909185734 H 0.0 **** 0.06
33651 C 99.65447385720184 23.34611850499303 2.697048832796753 C 0.0 **** -0.24
33652 H 99.88744508384879 23.607692747825695 1.6654850663352931 H 0.0 **** 0.06
33653 H 98.76309763534547 23.885660591468337 3.0167429185403734 H 0.0 **** 0.06
33654 H 100.49282060096449 23.617240725376888 3.3385057804868126 H 0.0 **** 0.06
33655 H 99.47508955045615 22.27263951721659 2.7678497484021705 H 0.0 **** 0.06
33656 C 17.776624482646866 39.66672314491262 52.9818590113358 C 0.0 **** -0.24
33657 H 17.228976724363065 38.93134787134443 53.57129237938228 H 0.0 **** 0.06
33658 H 18.698883401825583 39.218810013858445 52.61001772264428 H 0.0 **** 0.06
33659 H 18.0163494780968 40.526799898763926 53.60664811768232 H 0.0 **** 0.06
33660 H 17.162998602188736 39.98726721691557 52.14065257813561 H 0.0 **** 0.06
33661 C 112.37123862034501 108.12796734326463 28.848763592905158 C 0.0 **** -0.24
33662 H 112.28973900314205 107.0756570132433 28.576535129766654 H 0.0 **** 0.06
33663 H 113.35415849933918 108.31467847368407 29.283114957103635 H 0.0 **** 0.06
33664 H 111.59894282618511 108.37608262858618 29.576380612579584 H 0.0 **** 0.06
33665 H 112.24352259425956 108.74369511483428 27.958057961880797 H 0.0 **** 0.06
33666 C 76.11830088014744 89.03178365117707 99.31083590982885 C 0.0 **** -0.24
33667 H 76.6681413927347 89.96714593248093 99.20254733262294 H 0.0 **** 0.06
33668 H 75.49340431213972 88.87395181310595 98.43127977358813 H 0.0 **** 0.06
33669 H 75.48912833669385 89.08134924801725 100.1997823318427 H 0.0 **** 0.06
33670 H 76.82322997566246 88.2062366055353 99.41006600134426 H 0.0 **** 0.06
33671 C 49.74760585790648 40.45510080078472 87.9452206410168 C 0.0 **** -0.24
33672 H 49.629030309267705 39.53482341380064 88.51611192253587 H 0.0 **** 0.06
33673 H 50.79413088965288 40.760826685962996 87.96386596106005 H 0.0 **** 0.06
33674 H 49.13194730094557 41.23851224991867 88.38797975911066 H 0.0 **** 0.06
33675 H 49.435170774309086 40.28647138061507 86.91514446189154 H 0.0 **** 0.06
33676 C 65.76889961996216 88.39259667742942 61.629235638227186 C 0.0 **** -0.24
33677 H 65.33140154811929 88.60614906993294 62.60382493365543 H 0.0 **** 0.06
33678 H 65.97048503012451 89.33023733599134 61.10904047952863 H 0.0 **** 0.06
33679 H 65.07326577265809 87.79278486902402 61.04225019845407 H 0.0 **** 0.06
33680 H 66.70092414830924 87.84254156577407 61.761712977364425 H 0.0 **** 0.06
33681 C 45.96351647264945 66.21997464851967 17.367558220562785 C 0.0 **** -0.24
33682 H 45.91956809822598 65.81731094844895 18.37955429022827 H 0.0 **** 0.06
33683 H 46.97491988990655 66.57221213238529 17.160929259166807 H 0.0 **** 0.06
33684 H 45.26286367671415 67.04965629219515 17.276588153703045 H 0.0 **** 0.06
33685 H 45.698114041657135 65.43964749361697 16.654536751779005 H 0.0 **** 0.06
33686 C 2.70477375954996 80.15202504227845 46.426618830136135 C 0.0 **** -0.24
33687 H 3.0557823427047968 79.71800796497563 47.36338121307983 H 0.0 **** 0.06
33688 H 3.4067510731210913 80.9178376213304 46.09580085593902 H 0.0 **** 0.06
33689 H 1.7229414544380237 80.5994585101317 46.58025851646485 H 0.0 **** 0.06
33690 H 2.634205283300183 79.3706801428074 45.66907948261573 H 0.0 **** 0.06
33691 C 92.85283172611712 27.726378792882855 36.381760362025005 C 0.0 **** -0.24
33692 H 93.60656645553925 28.499955124137955 36.52997707624209 H 0.0 **** 0.06
33693 H 91.96162489772622 27.972358757060434 36.95904174496991 H 0.0 **** 0.06
33694 H 93.24855693135311 26.76586863408636 36.71481060527721 H 0.0 **** 0.06
33695 H 92.59644954716501 27.66643768894619 35.32451548073341 H 0.0 **** 0.06
33696 C 98.43573611672511 49.67540562893805 47.81756765473001 C 0.0 **** -0.24
33697 H 99.3434713874805 50.27438617208594 47.73687312072613 H 0.0 **** 0.06
33698 H 98.11462067329114 49.641456519530664 48.85892490257524 H 0.0 **** 0.06
33699 H 98.63774702495385 48.66381169320209 47.46591748991173 H 0.0 **** 0.06
33700 H 97.65021663898176 50.12246157995901 47.208277344044944 H 0.0 **** 0.06
33701 C 9.772314274785288 30.30390103687631 27.134169478304216 C 0.0 **** -0.24
33702 H 9.386733128470496 29.286330608327034 27.184359851933266 H 0.0 **** 0.06
33703 H 10.498374933124012 30.377465195529 26.32408440281222 H 0.0 **** 0.06
33704 H 10.25362500114801 30.557021999438803 28.07875791250379 H 0.0 **** 0.06
33705 H 8.950038396835339 30.99499035221578 26.948625691963457 H 0.0 **** 0.06
33706 C 56.4157015266879 87.23546567359107 109.46514738218886 C 0.0 **** -0.24
33707 H 56.713175682554905 86.43115327240506 110.1382634675047 H 0.0 **** 0.06
33708 H 57.305480166785344 87.72292617240502 109.06669438990819 H 0.0 **** 0.06
33709 H 55.81664083746644 87.96322246579088 110.0118738741298 H 0.0 **** 0.06
33710 H 55.82770396432464 86.82241037150631 108.64491461214239 H 0.0 **** 0.06
33711 C 112.60424370203177 6.369101553046875 98.6126251041949 C 0.0 **** -0.24
33712 H 111.80589770463557 6.37122880372786 99.35541831514928 H 0.0 **** 0.06
33713 H 112.20304557213451 6.057642634355773 97.64844569735368 H 0.0 **** 0.06
33714 H 113.38679083673591 5.676650384064573 98.922944163088 H 0.0 **** 0.06
33715 H 113.02163996259732 7.373051599249692 98.5261710342022 H 0.0 **** 0.06
33716 C 3.02198792957131 113.1254282405293 24.438304773537112 C 0.0 **** -0.24
33717 H 3.5069593240822883 112.41623785013573 23.76790768141167 H 0.0 **** 0.06
33718 H 2.3574046628464203 113.77068040075162 23.86515191802721 H 0.0 **** 0.06
33719 H 3.779750707857147 113.73196449265247 24.93439741236216 H 0.0 **** 0.06
33720 H 2.4456749602073273 112.581740561363 25.186959987595912 H 0.0 **** 0.06
33721 C 0.023861042718323233 37.44620680217142 13.829001821190168 C 0.0 **** -0.24
33722 H -1.0231825063446394 37.695927078364626 13.996626603762564 H 0.0 **** 0.06
33723 H 0.08858027636786403 36.552419321394 13.208050982705451 H 0.0 **** 0.06
33724 H 0.5109922928308208 37.25940854562673 14.78670280969001 H 0.0 **** 0.06
33725 H 0.51840256054831 38.276157944582785 13.325486900753614 H 0.0 **** 0.06
33726 C 37.794766315545615 101.61715199454268 67.45560362753844 C 0.0 **** -0.24
33727 H 38.71734021765283 101.05044749857365 67.32677036876925 H 0.0 **** 0.06
33728 H 36.96351649772322 100.92875294558569 67.60395784654719 H 0.0 **** 0.06
33729 H 37.612620079666726 102.22163676320004 66.56672540169166 H 0.0 **** 0.06
33730 H 37.8876568220424 102.2684308592133 68.3244256589839 H 0.0 **** 0.06
33731 C 72.158726302982 89.34165017438758 84.6157909276163 C 0.0 **** -0.24
33732 H 71.88373235312461 90.39680309859597 84.59436049114952 H 0.0 **** 0.06
33733 H 73.09721415899077 89.22308589615386 85.15724139029047 H 0.0 **** 0.06
33734 H 72.27862614060942 88.97598914737446 83.59605145703422 H 0.0 **** 0.06
33735 H 71.37502463689788 88.77336127070049 85.11722587022068 H 0.0 **** 0.06
33736 C 99.94559543267559 49.168783393134845 67.52444498653597 C 0.0 **** -0.24
33737 H 98.93191190957248 48.768690649020414 67.5313761483522 H 0.0 **** 0.06
33738 H 99.95708238184653 50.137440550288375 68.02570739928609 H 0.0 **** 0.06
33739 H 100.2819735617627 49.28877915024998 66.49357523321811 H 0.0 **** 0.06
33740 H 100.61144453993614 48.48202988120653 68.04580384597097 H 0.0 **** 0.06
33741 C 58.37186148647875 27.625400818803655 93.03256215659125 C 0.0 **** -0.24
33742 H 57.52809762534632 27.090369344507366 93.46594570927157 H 0.0 **** 0.06
33743 H 59.178011547287085 27.685778005203076 93.76359240155995 H 0.0 **** 0.06
33744 H 58.058548754821174 28.630772224860806 92.75190756548733 H 0.0 **** 0.06
33745 H 58.72279660238975 27.093881745838246 92.14763808587809 H 0.0 **** 0.06
33746 C 100.75762573697583 89.70006278905008 54.66947998065629 C 0.0 **** -0.24
33747 H 100.89823266225565 90.22213087557448 53.72375481909967 H 0.0 **** 0.06
33748 H 100.56520583539702 90.42577961153368 55.45984334270587 H 0.0 **** 0.06
33749 H 101.65740729247531 89.13148057452415 54.90806134860083 H 0.0 **** 0.06
33750 H 99.90974414986357 89.01945668747246 54.5861087724364 H 0.0 **** 0.06
33751 C 10.724859213267148 24.395074698463972 48.020503628729955 C 0.0 **** -0.24
33752 H 10.494404866518739 25.29268472726774 47.446141705706566 H 0.0 **** 0.06
33753 H 11.773297821038636 24.133414981958083 47.87845004968585 H 0.0 **** 0.06
33754 H 10.095057967956556 23.573862974492684 47.67800360871479 H 0.0 **** 0.06
33755 H 10.536344875393912 24.580771479873277 49.07749537684833 H 0.0 **** 0.06
33756 C 93.26554537440377 106.1374028670738 0.2292019416958624 C 0.0 **** -0.24
33757 H 92.35413321371718 106.37308854334864 -0.3194333099331743 H 0.0 **** 0.06
33758 H 93.50381078256477 105.08094890079002 0.10142389777794847 H 0.0 **** 0.06
33759 H 93.1180477295659 106.35162845933155 1.287979267708522 H 0.0 **** 0.06
33760 H 94.08711473644837 106.74416904754872 -0.15285459458610262 H 0.0 **** 0.06
33761 C 95.18564555849423 82.29201260455264 72.34825551625897 C 0.0 **** -0.24
33762 H 95.10488130329372 82.9204586988884 71.46098710680596 H 0.0 **** 0.06
33763 H 94.26398505561417 81.72323741966643 72.47580677996677 H 0.0 **** 0.06
33764 H 95.34958690770782 82.9200189509532 73.22421033436147 H 0.0 **** 0.06
33765 H 96.02407623892 81.60491333624351 72.23120346869544 H 0.0 **** 0.06
33766 C 13.473314256897794 91.88671395908756 38.69438731547393 C 0.0 **** -0.24
33767 H 14.046074406311334 92.64863210270411 38.165979244047435 H 0.0 **** 0.06
33768 H 13.787505504372263 90.89816323605757 38.357942756397335 H 0.0 **** 0.06
33769 H 12.411511505171191 92.02091858411147 38.48711791132365 H 0.0 **** 0.06
33770 H 13.649162664410042 91.97921006597736 39.76647332145603 H 0.0 **** 0.06
33771 C 61.194671980456505 0.23087501720746673 64.29602267067986 C 0.0 **** -0.24
33772 H 60.30411042703355 0.7602733519409668 64.63767481805553 H 0.0 **** 0.06
33773 H 61.14649623138064 -0.8085988428636028 64.62184746399896 H 0.0 **** 0.06
33774 H 62.081721683270146 0.7036900220486757 64.71756074753364 H 0.0 **** 0.06
33775 H 61.24385308883157 0.26936406154571557 63.20810708127442 H 0.0 **** 0.06
33776 C 61.08782188896423 43.06042372259304 30.39316901762149 C 0.0 **** -0.24
33777 H 60.82525539514113 43.69770502373575 31.236946163909735 H 0.0 **** 0.06
33778 H 60.25654066899827 42.3902586127212 30.17168114944228 H 0.0 **** 0.06
33779 H 61.971665459538656 42.47459347577842 30.6418553900796 H 0.0 **** 0.06
33780 H 61.29657873876687 43.681075687006 29.521363240839918 H 0.0 **** 0.06
33781 C 62.458521336323656 102.41375634549291 103.69528497733913 C 0.0 **** -0.24
33782 H 63.23137791236266 102.19381124817517 102.95852284214246 H 0.0 **** 0.06
33783 H 62.373558038943315 101.58039644162182 104.39296404638016 H 0.0 **** 0.06
33784 H 61.50499189008332 102.5616831647281 103.1876858809249 H 0.0 **** 0.06
33785 H 62.72414389181759 103.31949045794278 104.24027205915026 H 0.0 **** 0.06
33786 C 77.94055032534173 23.220205642075953 61.37733767129444 C 0.0 **** -0.24
33787 H 77.30918684791715 24.0419332793761 61.71497118471987 H 0.0 **** 0.06
33788 H 77.98004926585526 23.217067674228023 60.28718004523681 H 0.0 **** 0.06
33789 H 77.52573522958677 22.276103095184215 61.72913209685352 H 0.0 **** 0.06
33790 H 78.94655385381715 23.347522604143478 61.77693226097597 H 0.0 **** 0.06
33791 C 115.30427940358109 72.86256886035767 0.5879471182889233 C 0.0 **** -0.24
33792 H 116.06651613705338 73.63942690122326 0.5388224427188106 H 0.0 **** 0.06
33793 H 115.573506128391 72.04578850654477 -0.0820084014017084 H 0.0 **** 0.06
33794 H 114.34275281096812 73.27867479208274 0.2867909548695593 H 0.0 **** 0.06
33795 H 115.23383843350231 72.4871068281611 1.6086580803944912 H 0.0 **** 0.06
33796 C 37.49789717461405 74.61620757215286 4.250410962365862 C 0.0 **** -0.24
33797 H 37.9007005990226 73.69773797473079 3.825364537852664 H 0.0 **** 0.06
33798 H 37.46465711055245 75.38902716260796 3.48145737432381 H 0.0 **** 0.06
33799 H 38.13440706324508 74.94696123315003 5.070341849183848 H 0.0 **** 0.06
33800 H 36.48993772722497 74.43243306839344 4.6236579224972445 H 0.0 **** 0.06
33801 C 22.973439546707652 45.166439917637014 57.17417252777224 C 0.0 **** -0.24
33802 H 23.01915292791182 46.25366219408986 57.11292262482928 H 0.0 **** 0.06
33803 H 23.511455587993282 44.82909983878278 58.060254342050314 H 0.0 **** 0.06
33804 H 23.43054016641912 44.733984938282184 56.28443029553864 H 0.0 **** 0.06
33805 H 21.93164687617562 44.850693695740596 57.238585027995555 H 0.0 **** 0.06
33806 C 9.337399355527936 108.04110135655978 25.601527264745584 C 0.0 **** -0.24
33807 H 10.191920600072137 108.43675312382491 26.15051786375784 H 0.0 **** 0.06
33808 H 9.654768266045068 107.73839988092587 24.604111958343424 H 0.0 **** 0.06
33809 H 8.570270612069294 108.81159920698865 25.52093484189038 H 0.0 **** 0.06
33810 H 8.932066029010542 107.17916977574944 26.132084927241465 H 0.0 **** 0.06
33811 C 51.24907805170855 90.80326613095195 115.59413583409724 C 0.0 **** -0.24
33812 H 50.83742560201317 91.5509438760339 116.27273280861698 H 0.0 **** 0.06
33813 H 50.581948036774385 89.9426005281747 115.5554476947591 H 0.0 **** 0.06
33814 H 52.228901008653935 90.4883320243211 115.95301050775117 H 0.0 **** 0.06
33815 H 51.348545198587836 91.23229799063455 114.59747618399473 H 0.0 **** 0.06
33816 C 112.98943163094907 39.61021584040867 84.63227054688579 C 0.0 **** -0.24
33817 H 113.68865405850039 39.433366050729575 83.81587014087148 H 0.0 **** 0.06
33818 H 113.54377304344618 39.77423731811626 85.55704142719414 H 0.0 **** 0.06
33819 H 112.33857471736502 38.7437293151242 84.7468781477257 H 0.0 **** 0.06
33820 H 112.38664836237842 40.49089922651399 84.40894410462539 H 0.0 **** 0.06
33821 C 103.14909839464653 36.7352756569035 75.97452408268705 C 0.0 **** -0.24
33822 H 102.22818857486895 36.53776568043034 76.52292945452923 H 0.0 **** 0.06
33823 H 103.93510018862948 37.0202735589763 76.67506460625266 H 0.0 **** 0.06
33824 H 102.98278977377461 37.5463574917151 75.26505435321482 H 0.0 **** 0.06
33825 H 103.45082873381116 35.837350722169916 75.43561393505918 H 0.0 **** 0.06
33826 C 113.76079391321292 62.325229576500874 94.4123198824476 C 0.0 **** -0.24
33827 H 113.85695267212932 63.29827644228564 93.93141573338076 H 0.0 **** 0.06
33828 H 113.28531166454079 61.6252754114913 93.72451656135254 H 0.0 **** 0.06
33829 H 113.15099901679747 62.42281044969181 95.31039933392333 H 0.0 **** 0.06
33830 H 114.74914693005778 61.95491591282746 94.68348150326787 H 0.0 **** 0.06
33831 C 112.5704410982921 72.27367846401933 67.08987898430553 C 0.0 **** -0.24
33832 H 112.38256571695777 71.42558098266665 67.74837884173496 H 0.0 **** 0.06
33833 H 113.09338409417582 71.93153425918149 66.1974550632383 H 0.0 **** 0.06
33834 H 113.1817172800858 73.0102986660711 67.61127006826166 H 0.0 **** 0.06
33835 H 111.6216024086304 72.72775275018125 66.80366533246962 H 0.0 **** 0.06
33836 C 89.12236141544764 25.838179198908847 34.808988056494115 C 0.0 **** -0.24
33837 H 90.10215826497313 25.471202323662197 34.50236337650921 H 0.0 **** 0.06
33838 H 88.45306085272045 24.99366357988697 34.971824343551305 H 0.0 **** 0.06
33839 H 88.71422584276758 26.48005684437777 34.02792017996859 H 0.0 **** 0.06
33840 H 89.22121481671675 26.408409886610514 35.733461207169796 H 0.0 **** 0.06
33841 C 27.752911648154168 52.94231203057632 47.029072232113776 C 0.0 **** -0.24
33842 H 27.890970631654568 51.86295596450282 46.97412956945641 H 0.0 **** 0.06
33843 H 26.705305240606492 53.164914777125745 47.231691049748065 H 0.0 **** 0.06
33844 H 28.04427457792457 53.39411915865679 46.08044661451629 H 0.0 **** 0.06
33845 H 28.372402403061415 53.34752078481165 47.82954750313701 H 0.0 **** 0.06
33846 C 16.321088840840336 17.420411885816897 23.62056446441204 C 0.0 **** -0.24
33847 H 16.088090603500614 17.671769853839205 22.585916437472292 H 0.0 **** 0.06
33848 H 16.715698751912967 16.405368978314815 23.667334910497402 H 0.0 **** 0.06
33849 H 15.415769269097733 17.48795309173543 24.22324611517695 H 0.0 **** 0.06
33850 H 17.06590769647547 18.117906540108173 24.004045422924605 H 0.0 **** 0.06
33851 C 22.020510314824396 104.21539187806783 32.73247318971113 C 0.0 **** -0.24
33852 H 21.424731430633493 104.26186679315617 33.64335193257455 H 0.0 **** 0.06
33853 H 22.38788841362159 105.21241778085812 32.488020178680244 H 0.0 **** 0.06
33854 H 21.403999196512792 103.84458495988332 31.913337150338975 H 0.0 **** 0.06
33855 H 22.86453410208209 103.54339874743056 32.88387187897911 H 0.0 **** 0.06
33856 C 25.174494999518288 56.63727914581972 21.439999179373075 C 0.0 **** -0.24
33857 H 25.942089798671077 56.70896349062093 22.21118021365092 H 0.0 **** 0.06
33858 H 24.67488832618284 55.671547922434115 21.51444320024457 H 0.0 **** 0.06
33859 H 25.63719089463052 56.731992792217966 20.457279266363088 H 0.0 **** 0.06
33860 H 24.445580660379562 57.435404167809224 21.578280964212382 H 0.0 **** 0.06
33861 C 107.93058904019097 50.32108187011946 111.11931101593366 C 0.0 **** -0.24
33862 H 108.751077186268 51.018959578628106 110.95585033286268 H 0.0 **** 0.06
33863 H 108.31159681352838 49.41609200054323 111.59246845680501 H 0.0 **** 0.06
33864 H 107.47395669772396 50.066034868241935 110.16239275908913 H 0.0 **** 0.06
33865 H 107.1833784421538 50.78294167723131 111.76468795816135 H 0.0 **** 0.06
33866 C 12.526115808406242 56.258787422811864 43.58410883077892 C 0.0 **** -0.24
33867 H 11.83995543447028 56.72514100104259 44.29113346978553 H 0.0 **** 0.06
33868 H 13.017080988295351 55.41021667592106 44.05931759314418 H 0.0 **** 0.06
33869 H 13.275670588127106 56.986055043769596 43.27336786341094 H 0.0 **** 0.06
33870 H 11.969909313923893 55.91487787186042 42.711481666345804 H 0.0 **** 0.06
33871 C 7.460723967216836 67.37735916877338 61.2432276215189 C 0.0 **** -0.24
33872 H 8.461909963832 67.30873507350486 60.81719133720293 H 0.0 **** 0.06
33873 H 7.527262340303679 67.74415703991085 62.26733186482136 H 0.0 **** 0.06
33874 H 6.996809788983484 66.39068205466577 61.2401455594849 H 0.0 **** 0.06
33875 H 6.859577103594859 68.0645390994382 60.64863642563347 H 0.0 **** 0.06
33876 C 75.40501943719835 71.51505886019058 54.05742129263893 C 0.0 **** -0.24
33877 H 74.41329200395391 71.0635097591985 54.0676501151298 H 0.0 **** 0.06
33878 H 76.16151624775216 70.73050735623787 54.07439383100156 H 0.0 **** 0.06
33879 H 75.52228091001264 72.15253181805434 54.935067952140436 H 0.0 **** 0.06
33880 H 75.5217596493547 72.11461455732541 53.155147946425856 H 0.0 **** 0.06
33881 C 7.2035409175143315 69.45336323355502 50.11323256302706 C 0.0 **** -0.24
33882 H 7.967475291610398 70.07559729238079 49.64518267132083 H 0.0 **** 0.06
33883 H 7.561769414027651 69.10742611013097 51.08376309265587 H 0.0 **** 0.06
33884 H 6.994336779767778 68.59482515553537 49.47589160870918 H 0.0 **** 0.06
33885 H 6.292398579777114 70.03673866328091 50.24873660748084 H 0.0 **** 0.06
33886 C 51.55453035479627 24.760658883181407 33.389793388028636 C 0.0 **** -0.24
33887 H 50.835354658570395 25.579396255378242 33.39862289336406 H 0.0 **** 0.06
33888 H 51.6165754155397 24.3429812520028 32.383972594988336 H 0.0 **** 0.06
33889 H 51.232116515403874 23.986260320290427 34.084886663743646 H 0.0 **** 0.06
33890 H 52.53377390703139 25.13418835911625 33.68948382648557 H 0.0 **** 0.06
33891 C 54.64156727455713 19.990313185695413 110.53418173912513 C 0.0 **** -0.24
33892 H 55.00805038215796 18.99095973794087 110.30153325353268 H 0.0 **** 0.06
33893 H 55.129943166160444 20.355040271997552 111.43832152173417 H 0.0 **** 0.06
33894 H 53.56433617126834 19.95475620638922 110.69151994585769 H 0.0 **** 0.06
33895 H 54.866491161419106 20.661719397101507 109.70435548877049 H 0.0 **** 0.06
33896 C 115.4453493171036 85.65054851189022 47.86993355654397 C 0.0 **** -0.24
33897 H 116.4048998170799 86.05646864255007 47.54856728819473 H 0.0 **** 0.06
33898 H 115.49622067701614 84.56232848535211 47.87858014624564 H 0.0 **** 0.06
33899 H 114.66519546802589 85.9739838325644 47.18049092188977 H 0.0 **** 0.06
33900 H 115.21647183012209 86.01102972418343 48.873301385989635 H 0.0 **** 0.06
33901 C 75.49392896407312 100.50460374653272 20.124118794068853 C 0.0 **** -0.24
33902 H 76.49867458143636 100.10939002915666 19.974834133364656 H 0.0 **** 0.06
33903 H 74.76251908884637 99.72310710596611 19.919240476803267 H 0.0 **** 0.06
33904 H 75.32990010142548 101.34288667755072 19.446870815488655 H 0.0 **** 0.06
33905 H 75.38655122289262 100.84312579259256 21.154402915707347 H 0.0 **** 0.06
33906 C 49.80815582222584 110.99634721919205 7.561318720574022 C 0.0 **** -0.24
33907 H 50.85937724370524 110.78946155051833 7.361818413370116 H 0.0 **** 0.06
33908 H 49.7192364729745 111.5622274890207 8.48881127518655 H 0.0 **** 0.06
33909 H 49.264736114110576 110.05538021498297 7.6568005030257495 H 0.0 **** 0.06
33910 H 49.3893258116824 111.57578979327752 6.73974147565545 H 0.0 **** 0.06
33911 C 105.05640014027459 87.47692785290307 43.25945017501199 C 0.0 **** -0.24
33912 H 105.75916541133242 86.65418183441271 43.12596030343549 H 0.0 **** 0.06
33913 H 105.38156178523951 88.10129295630794 44.09220207659562 H 0.0 **** 0.06
33914 H 104.06479414719786 87.07632147063518 43.46943260606493 H 0.0 **** 0.06
33915 H 105.0210716667316 88.07559413453833 42.34925067111754 H 0.0 **** 0.06
33916 C 107.63196281903015 48.21162823914946 17.72904344372654 C 0.0 **** -0.24
33917 H 108.4237224306943 47.96217307631841 18.435206579783426 H 0.0 **** 0.06
33918 H 107.77229681839289 47.64454144798424 16.808843742047827 H 0.0 **** 0.06
33919 H 107.66447306055998 49.2783607645957 17.50734689721918 H 0.0 **** 0.06
33920 H 106.66469151644436 47.961367066252265 18.166147773393845 H 0.0 **** 0.06
33921 C 27.667726802710888 62.43463227330531 47.46420776921235 C 0.0 **** -0.24
33922 H 27.714604094879974 63.52132128682166 47.5276349343448 H 0.0 **** 0.06
33923 H 26.660057194687965 62.13065387674348 47.17994965040134 H 0.0 **** 0.06
33924 H 27.917175344499697 62.00286429193403 48.433154287574894 H 0.0 **** 0.06
33925 H 28.378784045706198 62.08299880887603 46.716756066195785 H 0.0 **** 0.06
33926 C 22.096838912567264 67.0925986732743 45.701640029862546 C 0.0 **** -0.24
33927 H 21.419131950836466 67.76113830020607 46.23410288206043 H 0.0 **** 0.06
33928 H 21.66431766723625 66.09311650067815 45.66248287221396 H 0.0 **** 0.06
33929 H 23.05316247478119 67.05552516103712 46.22225052578818 H 0.0 **** 0.06
33930 H 22.249298883379304 67.46390909665102 44.687477237982165 H 0.0 **** 0.06
33931 C 95.48907332855116 70.21119170477246 86.77435385338714 C 0.0 **** -0.24
33932 H 95.55867199508712 71.15841726460155 87.31021240035057 H 0.0 **** 0.06
33933 H 96.20943544394127 70.20341321576727 85.95617570119458 H 0.0 **** 0.06
33934 H 94.48241031539534 70.09470431553906 86.37353495239046 H 0.0 **** 0.06
33935 H 95.70486319305776 69.39089682072627 87.45852529367227 H 0.0 **** 0.06
33936 C 47.402562908035904 70.52108941190238 97.87125056602798 C 0.0 **** -0.24
33937 H 47.51419092428392 71.55779550446891 98.18812150307699 H 0.0 **** 0.06
33938 H 48.13137205058399 69.90112957841052 98.39422728133724 H 0.0 **** 0.06
33939 H 47.56989008915039 70.45059480587827 96.79630605573473 H 0.0 **** 0.06
33940 H 46.39572384943003 70.17582482147895 98.10593550697757 H 0.0 **** 0.06
33941 C 13.553585095931936 47.600697280174586 103.23725013066831 C 0.0 **** -0.24
33942 H 14.153748622178284 48.43111764858 103.60805771092402 H 0.0 **** 0.06
33943 H 12.498626243554156 47.87672127084815 103.25990444479221 H 0.0 **** 0.06
33944 H 13.71432331813429 46.72623664567112 103.86731865293866 H 0.0 **** 0.06
33945 H 13.845948958200097 47.36979351018263 102.21273639561427 H 0.0 **** 0.06
33946 C 22.230575765800467 99.06820418169474 56.68747758858376 C 0.0 **** -0.24
33947 H 21.66803707886487 98.5349586099847 55.9197953263548 H 0.0 **** 0.06
33948 H 21.865103557987652 100.0929271169149 56.758248739407804 H 0.0 **** 0.06
33949 H 23.287515020629968 99.07676660785933 56.42199194609685 H 0.0 **** 0.06
33950 H 22.099932476435185 98.56764296399462 57.6465898445789 H 0.0 **** 0.06
33951 C 17.952850261791813 77.80884944736465 67.97336407738442 C 0.0 **** -0.24
33952 H 17.633639828038003 78.80878937795433 67.68008371583196 H 0.0 **** 0.06
33953 H 18.256897003661553 77.81720176604233 69.01997497004314 H 0.0 **** 0.06
33954 H 18.795327392275105 77.50049655753799 67.3526802226564 H 0.0 **** 0.06
33955 H 17.127750836940432 77.10971591983684 67.83915239846635 H 0.0 **** 0.06
33956 C 52.892515825285614 79.47750977290764 114.73306956827008 C 0.0 **** -0.24
33957 H 52.59359957299117 78.53070893367709 115.18288597518588 H 0.0 **** 0.06
33958 H 53.88992959852885 79.7451350771787 115.08158643342534 H 0.0 **** 0.06
33959 H 52.185495366986544 80.25537640435465 115.02116351272161 H 0.0 **** 0.06
33960 H 52.90132803785389 79.37789517311268 113.6480788864929 H 0.0 **** 0.06
33961 C 79.38653299768919 23.56876744750923 100.44340066305915 C 0.0 **** -0.24
33962 H 79.70946456074556 23.891230712418917 101.43313809692614 H 0.0 **** 0.06
33963 H 78.54869069182197 24.185676508316448 100.1157649848742 H 0.0 **** 0.06
33964 H 79.0750069501923 22.525150703767082 100.48487543593245 H 0.0 **** 0.06
33965 H 80.21213589565548 23.673760244281198 99.73896119386933 H 0.0 **** 0.06
33966 C 103.43792958429097 59.636911994727114 98.33746557265877 C 0.0 **** -0.24
33967 H 102.37509909499522 59.4089276917709 98.41216503370967 H 0.0 **** 0.06
33968 H 103.93664761645779 59.353176578842906 99.26504908885727 H 0.0 **** 0.06
33969 H 103.56942286774444 60.70556880728918 98.16641378384566 H 0.0 **** 0.06
33970 H 103.8712617610849 59.079627152216204 97.50684328010402 H 0.0 **** 0.06
33971 C 55.90021231536576 108.88258982933716 8.205447706243913 C 0.0 **** -0.24
33972 H 54.99315984524819 109.4750876866837 8.323344426285871 H 0.0 **** 0.06
33973 H 55.68796637773886 108.01306920715793 7.582142652369324 H 0.0 **** 0.06
33974 H 56.24721788002728 108.55135975099142 9.185092246690324 H 0.0 **** 0.06
33975 H 56.67211898247251 109.48923464161676 7.7327166205734095 H 0.0 **** 0.06
33976 C 58.72725180217357 111.67131967970863 70.32472679432057 C 0.0 **** -0.24
33977 H 57.97082705784764 112.26451321101882 69.8098679267546 H 0.0 **** 0.06
33978 H 58.38631671376348 111.44633879023172 71.33531643476921 H 0.0 **** 0.06
33979 H 59.65961312167556 112.23357908579396 70.37158036777342 H 0.0 **** 0.06
33980 H 58.89037067140718 110.7408653365207 69.77980425707486 H 0.0 **** 0.06
33981 C 98.62314766060734 96.33634686376178 46.67595759060059 C 0.0 **** -0.24
33982 H 98.52343046580114 97.41992989026312 46.60429920651163 H 0.0 **** 0.06
33983 H 98.65426897557197 95.90819832948432 45.67336249355927 H 0.0 **** 0.06
33984 H 97.77088057113622 95.92888754143661 47.21958085349064 H 0.0 **** 0.06
33985 H 99.54381679245006 96.09118278224412 47.20555789578265 H 0.0 **** 0.06
33986 C 54.81118314841933 2.1379072514338873 8.581221981328 C 0.0 **** -0.24
33987 H 54.84463611645481 2.4904425733516717 7.550229588689319 H 0.0 **** 0.06
33988 H 55.70270185813848 2.4776207611485574 9.110121575264571 H 0.0 **** 0.06
33989 H 54.77503865618334 1.0488924620466946 8.592441497269434 H 0.0 **** 0.06
33990 H 53.9241634832388 2.537011646564636 9.072610135553987 H 0.0 **** 0.06
33991 C 84.0273380604309 87.4115237466533 33.26165267630793 C 0.0 **** -0.24
33992 H 84.21017516614519 86.5086787199051 33.84424687238604 H 0.0 **** 0.06
33993 H 84.13473813180646 88.2857102142741 33.9043001959117 H 0.0 **** 0.06
33994 H 83.01639786081606 87.38132142361667 32.85363262781698 H 0.0 **** 0.06
33995 H 84.74635826983098 87.46967995397199 32.44525064366766 H 0.0 **** 0.06
33996 C 52.83753260716073 15.681965986716364 48.440421753704356 C 0.0 **** -0.24
33997 H 52.87868024951094 16.76598710368563 48.554980676912045 H 0.0 **** 0.06
33998 H 53.24741803344283 15.404020319070526 47.46976545034627 H 0.0 **** 0.06
33999 H 51.801607949278704 15.350459893277844 48.50602147893624 H 0.0 **** 0.06
34000 H 53.420596205419265 15.211345925175976 49.23066920171426 H 0.0 **** 0.06
34001 C 40.17783583196524 38.91058769093817 47.2303386136233 C 0.0 **** -0.24
34002 H 41.21968417252765 39.07111118451752 47.507754910114556 H 0.0 **** 0.06
34003 H 40.117032673355496 38.68305535213028 46.16598689695627 H 0.0 **** 0.06
34004 H 39.6018885868512 39.81191569375332 47.44262902149546 H 0.0 **** 0.06
34005 H 39.77235249135194 38.07725315119879 47.804044421290314 H 0.0 **** 0.06
34006 C 22.50448418948912 105.83269571553834 10.144390352756687 C 0.0 **** -0.24
34007 H 22.54925334372294 105.07906482810255 9.358076947686257 H 0.0 **** 0.06
34008 H 23.04074409096259 105.47280761531856 11.022866002932929 H 0.0 **** 0.06
34009 H 21.464056742903892 106.02305980151817 10.406303989606798 H 0.0 **** 0.06
34010 H 22.96495382763638 106.75509888678657 9.78977833240667 H 0.0 **** 0.06
34011 C 68.765548360109 65.23913866659909 73.30669943760522 C 0.0 **** -0.24
34012 H 69.39609566016017 64.57336789666014 72.71881097483381 H 0.0 **** 0.06
34013 H 67.77627189595518 65.29757078893869 72.85310236604344 H 0.0 **** 0.06
34014 H 69.2126995900102 66.23230225109752 73.33407401164891 H 0.0 **** 0.06
34015 H 68.67792393558744 64.85257051898417 74.32276275301994 H 0.0 **** 0.06
34016 C 81.62703052673976 5.445166863950135 53.33408545441866 C 0.0 **** -0.24
34017 H 81.82901826822712 6.516029877732109 53.34924769687554 H 0.0 **** 0.06
34018 H 82.44704935945293 4.913604000283684 53.81724133888115 H 0.0 **** 0.06
34019 H 81.53254298221185 5.108047812074034 52.30146430059158 H 0.0 **** 0.06
34020 H 80.69810665100061 5.2429147606088975 53.8682419223631 H 0.0 **** 0.06
34021 C 109.72818724248229 38.385528666701795 4.141147273149272 C 0.0 **** -0.24
34022 H 110.77690581615195 38.66861655175388 4.043888695269288 H 0.0 **** 0.06
34023 H 109.35314829753078 38.046432840959774 3.1754561370286467 H 0.0 **** 0.06
34024 H 109.14921912286988 39.24618671754693 4.474596121564048 H 0.0 **** 0.06
34025 H 109.63556130084869 37.58041074570439 4.869451517446976 H 0.0 **** 0.06
34026 C 15.406482777064184 17.121661991228933 106.17207623121718 C 0.0 **** -0.24
34027 H 14.393444779292338 17.512556680862915 106.27159989161953 H 0.0 **** 0.06
34028 H 15.422226783462293 16.074890980073036 106.47848646405635 H 0.0 **** 0.06
34029 H 16.08209969964952 17.69635286481484 106.80503569750041 H 0.0 **** 0.06
34030 H 15.726251881660403 17.20131997590471 105.13334679180207 H 0.0 **** 0.06
34031 C 25.777489264834628 88.88502253022614 4.600883624914559 C 0.0 **** -0.24
34032 H 26.26973407669891 88.2516808438723 3.8622734726255885 H 0.0 **** 0.06
34033 H 24.902273506986035 88.36956929627448 4.9966081575861665 H 0.0 **** 0.06
34034 H 25.46894297422125 89.81787252708241 4.130840515802305 H 0.0 **** 0.06
34035 H 26.47162980713341 89.0998064854795 5.414690380866858 H 0.0 **** 0.06
34036 C 91.87233271057829 57.711051785740665 37.08606482212889 C 0.0 **** -0.24
34037 H 92.55952259903933 57.21595331967404 37.77170254221835 H 0.0 **** 0.06
34038 H 92.32127708030887 58.63679873283479 36.72592025940065 H 0.0 **** 0.06
34039 H 90.9409950957074 57.93572078131342 37.60553245491246 H 0.0 **** 0.06
34040 H 91.66652538251401 57.053554446958344 36.24062752554494 H 0.0 **** 0.06
34041 C 38.23488821676324 22.170030405852856 76.32493384793352 C 0.0 **** -0.24
34042 H 38.60422731474955 21.145988344563932 76.28843802560763 H 0.0 **** 0.06
34043 H 37.969807172760284 22.424666848253878 77.35127876976208 H 0.0 **** 0.06
34044 H 37.35505021678529 22.26161122185266 75.6881296413975 H 0.0 **** 0.06
34045 H 39.011062414953074 22.849022067274376 75.97075516659285 H 0.0 **** 0.06
34046 C 31.267323869495897 33.5547999493283 44.74480098382446 C 0.0 **** -0.24
34047 H 30.579136847701903 34.29774731110791 44.339050426989104 H 0.0 **** 0.06
34048 H 31.761032228814088 33.03332793902484 43.92489943965222 H 0.0 **** 0.06
34049 H 30.71209829430495 32.83880034535434 45.349747769116675 H 0.0 **** 0.06
34050 H 32.014408933706704 34.0522365830478 45.36292575366912 H 0.0 **** 0.06
34051 C 28.317595289886413 12.714912771608098 95.72569594619574 C 0.0 **** -0.24
34052 H 28.35035062994774 12.269809190380357 96.72027297147673 H 0.0 **** 0.06
34053 H 27.98869178686556 11.966352837143816 95.00394104254764 H 0.0 **** 0.06
34054 H 29.311538100061966 13.068995202727308 95.45387279779817 H 0.0 **** 0.06
34055 H 27.620091986255318 13.552072891476215 95.72493018957107 H 0.0 **** 0.06
34056 C 59.29495108830373 79.36525472075488 81.71497750039774 C 0.0 **** -0.24
34057 H 58.806837404458705 80.06485949045634 81.03772817157785 H 0.0 **** 0.06
34058 H 59.992862710209224 78.74242815464311 81.15412629655503 H 0.0 **** 0.06
34059 H 58.54214042209368 78.7325974400033 82.18727563771147 H 0.0 **** 0.06
34060 H 59.83648812217875 79.91929075764887 82.48143248302141 H 0.0 **** 0.06
34061 C 72.41652535919198 78.26304784419035 3.8876638785655757 C 0.0 **** -0.24
34062 H 71.78533582663084 78.11174249727394 3.011967571560916 H 0.0 **** 0.06
34063 H 73.22222728895531 77.52920387825228 3.885672771142495 H 0.0 **** 0.06
34064 H 71.81907672487202 78.14574819770097 4.791029475012635 H 0.0 **** 0.06
34065 H 72.83984054283292 79.26701693704648 3.8603901157902243 H 0.0 **** 0.06
34066 C 56.76583253329778 42.45906394091795 95.90012093965431 C 0.0 **** -0.24
34067 H 56.09999041839808 43.21014747586979 96.32558583580806 H 0.0 **** 0.06
34068 H 56.78890047722973 42.567876224267415 94.81550978900866 H 0.0 **** 0.06
34069 H 56.40328873251542 41.46421491623141 96.15783965279293 H 0.0 **** 0.06
34070 H 57.76984296639631 42.595572821594224 96.30061547270847 H 0.0 **** 0.06
34071 C 67.5464627125918 41.14993038469163 15.035508029352187 C 0.0 **** -0.24
34072 H 67.38253427335043 40.124665908090435 15.365189232770902 H 0.0 **** 0.06
34073 H 68.24294021536755 41.64307575321715 15.71445600426651 H 0.0 **** 0.06
34074 H 66.5981245980969 41.68810105688067 15.03464093628142 H 0.0 **** 0.06
34075 H 67.96282266756924 41.14507702659927 14.028234293000295 H 0.0 **** 0.06
34076 C 96.72072799264059 49.432839662882 60.59103705666098 C 0.0 **** -0.24
34077 H 96.22583113858413 48.49614198882074 60.84770051532678 H 0.0 **** 0.06
34078 H 97.44824896748513 49.253203294565424 59.79952359660021 H 0.0 **** 0.06
34079 H 97.2300032247504 49.826436757538374 61.47043661996099 H 0.0 **** 0.06
34080 H 95.97852147779508 50.15285882820285 60.247720305414134 H 0.0 **** 0.06
34081 C 54.49212691573458 72.93430457646372 61.71716024135678 C 0.0 **** -0.24
34082 H 54.30883021526857 72.01142120588786 61.167431103914225 H 0.0 **** 0.06
34083 H 54.19129077616166 73.78623717244123 61.1067857124081 H 0.0 **** 0.06
34084 H 55.55363500350616 73.0118154629152 61.95177946915034 H 0.0 **** 0.06
34085 H 53.915484370577005 72.9266703318553 62.64150032146779 H 0.0 **** 0.06
34086 C 84.0941583916429 36.83593131034263 6.7009898651694755 C 0.0 **** -0.24
34087 H 84.74776861961624 37.69404487079311 6.545885661172548 H 0.0 **** 0.06
34088 H 83.80042403757244 36.42413301284569 5.734723376754232 H 0.0 **** 0.06
34089 H 83.20426050355269 37.151402370556156 7.247404013459089 H 0.0 **** 0.06
34090 H 84.62254588638405 36.07529537100734 7.275874363006778 H 0.0 **** 0.06
34091 C 2.516013152878415 4.1943791097089616 106.13788140107874 C 0.0 **** -0.24
34092 H 3.192782896834686 3.815340391780836 105.37286711905926 H 0.0 **** 0.06
34093 H 2.3939860317935597 5.2713098253913415 106.01413053649247 H 0.0 **** 0.06
34094 H 2.930659295264803 3.986885086846641 107.1249109975596 H 0.0 **** 0.06
34095 H 1.5466370759380368 3.7059223330231816 106.04111091562851 H 0.0 **** 0.06
34096 C 105.29591852852941 19.45610121736047 4.81905242165746 C 0.0 **** -0.24
34097 H 106.08262236813324 19.098313223734408 5.483701507242671 H 0.0 **** 0.06
34098 H 104.70719339594564 18.609618984326488 4.464651325149362 H 0.0 **** 0.06
34099 H 105.74473343790746 19.96901713981174 3.96792843846103 H 0.0 **** 0.06
34100 H 104.64984029934399 20.147685001525133 5.361126611841627 H 0.0 **** 0.06
34101 C 67.07889900507882 13.642550807838404 33.88698411774499 C 0.0 **** -0.24
34102 H 67.14192626454258 14.588713077937044 34.42356311569881 H 0.0 **** 0.06
34103 H 66.43920224516324 13.76304575542197 33.0127607074418 H 0.0 **** 0.06
34104 H 66.65842491022045 12.879683602633932 34.5426675398773 H 0.0 **** 0.06
34105 H 68.07555212620656 13.33796337287518 33.568593526793705 H 0.0 **** 0.06
34106 C 73.56627930299307 13.30235757559197 89.15659622695512 C 0.0 **** -0.24
34107 H 73.78322448621107 14.370898521055665 89.13816660401477 H 0.0 **** 0.06
34108 H 72.5031391541184 13.145372207143737 88.97629056051187 H 0.0 **** 0.06
34109 H 73.83549223622028 12.895022906686506 90.13117532782434 H 0.0 **** 0.06
34110 H 74.14459312475032 12.801003856317692 88.38083073525269 H 0.0 **** 0.06
34111 C 50.57175570877939 92.12342464466417 32.97862683498454 C 0.0 **** -0.24
34112 H 49.80653160448733 91.49839325900837 32.52063527274731 H 0.0 **** 0.06
34113 H 51.51108634360844 92.00225838177568 32.437821575731505 H 0.0 **** 0.06
34114 H 50.70932370360097 91.82693016146513 34.018479047430674 H 0.0 **** 0.06
34115 H 50.26129545570535 93.16732921285916 32.93780747634776 H 0.0 **** 0.06
34116 C 76.86003091748853 21.196759770314515 16.12363154292562 C 0.0 **** -0.24
34117 H 76.18831803422347 21.24241405186256 16.981174005402373 H 0.0 **** 0.06
34118 H 76.82962567172953 20.19703056544407 15.691237568452252 H 0.0 **** 0.06
34119 H 77.87612440672513 21.423929909108196 16.445142451886344 H 0.0 **** 0.06
34120 H 76.5441658868817 21.92621111219356 15.376000129013768 H 0.0 **** 0.06
34121 C 74.56745861089149 0.6895472478715732 46.52271289976124 C 0.0 **** -0.24
34122 H 73.52496583998442 1.0080511460861459 46.50380069524492 H 0.0 **** 0.06
34123 H 74.71009047950986 -0.12609272137493122 45.81297335932195 H 0.0 **** 0.06
34124 H 74.823885844281 0.347502460411647 47.52573385226888 H 0.0 **** 0.06
34125 H 75.20815344876422 1.527723989248841 46.249044452643595 H 0.0 **** 0.06
34126 C 7.736370724671394 66.81412582969693 8.39919415103158 C 0.0 **** -0.24
34127 H 8.34021162868595 66.47299870214675 7.557794099002663 H 0.0 **** 0.06
34128 H 8.276557866202431 67.59005405206005 8.942975249570807 H 0.0 **** 0.06
34129 H 7.535034948339547 65.97635060256931 9.065588956057624 H 0.0 **** 0.06
34130 H 6.793635334810306 67.21864283224141 8.028800283310929 H 0.0 **** 0.06
34131 C 102.80730262790729 35.89734854003902 108.04354085893321 C 0.0 **** -0.24
34132 H 103.48421018465501 35.137417027555784 108.43499948724293 H 0.0 **** 0.06
34133 H 103.23041060020108 36.327226822252044 107.1354054701021 H 0.0 **** 0.06
34134 H 102.67179366778839 36.68136706606228 108.78833197550327 H 0.0 **** 0.06
34135 H 101.84363820159501 35.44131198082016 107.81545728907395 H 0.0 **** 0.06
34136 C 8.942573746311183 43.46775676438351 53.62097102516475 C 0.0 **** -0.24
34137 H 9.72549392863678 42.723616327250056 53.76440221207565 H 0.0 **** 0.06
34138 H 9.396975441054366 44.448931331620344 53.475165484569004 H 0.0 **** 0.06
34139 H 8.298673157520398 43.49234643917961 54.50011318308765 H 0.0 **** 0.06
34140 H 8.350805796847851 43.20754708613802 52.74368649964589 H 0.0 **** 0.06
34141 C 108.70833708048058 82.46137684056319 81.08979218479303 C 0.0 **** -0.24
34142 H 108.14614422903934 81.67559728842704 81.59526453726068 H 0.0 **** 0.06
34143 H 109.23289440176377 82.03764825291401 80.23334705483506 H 0.0 **** 0.06
34144 H 109.43049083490693 82.89300711670332 81.78168648619871 H 0.0 **** 0.06
34145 H 108.02191722547151 83.23645119250016 80.74959509512087 H 0.0 **** 0.06
34146 C 65.14477563359969 18.79802194661164 60.756209149682775 C 0.0 **** -0.24
34147 H 65.66545436098681 19.60251152942203 60.23763063227746 H 0.0 **** 0.06
34148 H 65.73166275332514 17.881716298948504 60.68879957334521 H 0.0 **** 0.06
34149 H 64.17058808077392 18.639706889266392 60.29354997507106 H 0.0 **** 0.06
34150 H 65.01015188847472 19.068210071011038 61.803000107915366 H 0.0 **** 0.06
34151 C 104.32600098881551 107.02099347953816 108.90272331400048 C 0.0 **** -0.24
34152 H 104.35073786795834 107.95576044880676 109.46294234464361 H 0.0 **** 0.06
34153 H 103.3000141649083 106.65272569065257 108.85767276577009 H 0.0 **** 0.06
34154 H 104.95575809807741 106.28335417824763 109.39902940646466 H 0.0 **** 0.06
34155 H 104.6940510204156 107.19347315697945 107.89184328571689 H 0.0 **** 0.06
34156 C 0.3538127912596849 0.6269391752277329 60.62740726669358 C 0.0 **** -0.24
34157 H -0.2690608731378461 0.7244887406454836 61.516374090903696 H 0.0 **** 0.06
34158 H 1.3981456092122926 0.7891624722176402 60.896022564466705 H 0.0 **** 0.06
34159 H 0.04863163184950281 1.366072949534555 59.88759228808084 H 0.0 **** 0.06
34160 H 0.23637590487820148 -0.3743907017042716 60.211309088347775 H 0.0 **** 0.06
34161 C 0.4156419357954828 107.53323265017941 31.34546558353731 C 0.0 **** -0.24
34162 H -0.41925334809723136 107.03678207010523 30.850980764355064 H 0.0 **** 0.06
34163 H 1.33461971926598 106.9812190868029 31.147007922687756 H 0.0 **** 0.06
34164 H 0.23524510941697052 107.56519310265374 32.419670886694384 H 0.0 **** 0.06
34165 H 0.5118760891380312 108.54963136417916 30.96247570435157 H 0.0 **** 0.06
34166 C 60.72512728572525 86.1014300957922 87.39661109017297 C 0.0 **** -0.24
34167 H 60.14943836365603 85.58519275791778 88.16519346086923 H 0.0 **** 0.06
34168 H 60.14511628898896 86.9402571920723 87.01028872765369 H 0.0 **** 0.06
34169 H 60.94825267706068 85.40856262511494 86.58512400051688 H 0.0 **** 0.06
34170 H 61.65629335880129 86.4699957117054 87.82613017608594 H 0.0 **** 0.06
34171 C 58.4900519505436 82.17868914898264 72.24444886513821 C 0.0 **** -0.24
34172 H 59.08433451604053 81.26746276331909 72.31515447600462 H 0.0 **** 0.06
34173 H 57.76651014884857 82.07876284285243 71.43632730195583 H 0.0 **** 0.06
34174 H 59.14732464276183 83.02507040323522 72.04263709351096 H 0.0 **** 0.06
34175 H 57.965251861721626 82.34382777010853 73.18555814257108 H 0.0 **** 0.06
34176 C 88.05216767100197 101.87840603299861 13.780391978325326 C 0.0 **** -0.24
34177 H 89.07855498414881 101.8113249271803 13.418769524486265 H 0.0 **** 0.06
34178 H 88.04879156421299 101.84466347390605 14.8702794252805 H 0.0 **** 0.06
34179 H 87.47382966098262 101.04230769300125 13.389456987075505 H 0.0 **** 0.06
34180 H 87.60952407320508 102.81552746386578 13.44397916965363 H 0.0 **** 0.06
34181 C 50.528677690457556 76.27258527229652 19.5791607294657 C 0.0 **** -0.24
34182 H 49.44846739607809 76.12392989248094 19.565128208840502 H 0.0 **** 0.06
34183 H 50.95066963306306 75.78385529733838 20.45717744433254 H 0.0 **** 0.06
34184 H 50.74745633988033 77.3397945665174 19.6155857261308 H 0.0 **** 0.06
34185 H 50.9652488094319 75.84209936742002 18.678174006795288 H 0.0 **** 0.06
34186 C 106.7468320988081 54.508300958763975 21.56737798350548 C 0.0 **** -0.24
34187 H 106.17077802473798 53.582474663415525 21.5841110420688 H 0.0 **** 0.06
34188 H 107.09899085424134 54.69822615279377 20.55367972402763 H 0.0 **** 0.06
34189 H 107.60010267430746 54.41626108088169 22.23865921103527 H 0.0 **** 0.06
34190 H 106.114777146815 55.33435495325929 21.89357102290853 H 0.0 **** 0.06
34191 C 111.29420910609653 6.059647061312944 41.044991336424 C 0.0 **** -0.24
34192 H 111.66198443012559 5.151219745677821 41.523693504398885 H 0.0 **** 0.06
34193 H 111.48460118712312 6.914187845440523 41.694690102024225 H 0.0 **** 0.06
34194 H 110.22346644717585 5.968800561826157 40.86653534746013 H 0.0 **** 0.06
34195 H 111.80961204685872 6.2033778431271 40.09506036142076 H 0.0 **** 0.06
34196 C 92.15454323011267 40.92846229122824 5.895538154445241 C 0.0 **** -0.24
34197 H 91.31118650269133 40.34556279534968 5.525919248167133 H 0.0 **** 0.06
34198 H 93.05795856350773 40.64312132393053 5.356451123369975 H 0.0 **** 0.06
34199 H 92.29053724189077 40.735687475416285 6.960043717869707 H 0.0 **** 0.06
34200 H 91.95891247733675 41.989681617110364 5.7414060311156625 H 0.0 **** 0.06
34201 C 45.86224475662334 12.850272445208361 109.30943542965203 C 0.0 **** -0.24
34202 H 46.76005494760929 13.379743699517292 109.6290314732551 H 0.0 **** 0.06
34203 H 44.987990828656734 13.301863397103943 109.77827147071669 H 0.0 **** 0.06
34204 H 45.93320070836339 11.80380273930291 109.6055096502383 H 0.0 **** 0.06
34205 H 45.76847342150086 12.916335457222829 108.2250756093211 H 0.0 **** 0.06
34206 C 19.70261799376209 101.64165700014163 105.56112329677305 C 0.0 **** -0.24
34207 H 18.780409014353012 101.58234356379657 106.13979082725422 H 0.0 **** 0.06
34208 H 20.502669965988076 101.1357558843577 106.10204518215795 H 0.0 **** 0.06
34209 H 19.970360902581803 102.68736864824783 105.41009206610977 H 0.0 **** 0.06
34210 H 19.556516961844153 101.16010671280164 104.59471587188243 H 0.0 **** 0.06
34211 C 103.59123938155285 33.088813746603186 30.568913237451625 C 0.0 **** -0.24
34212 H 102.64535398637517 33.02079866967768 30.03204426701774 H 0.0 **** 0.06
34213 H 104.10078517583166 34.01248972991942 30.289982316862506 H 0.0 **** 0.06
34214 H 104.21832845037866 32.2354195842895 30.31111631982145 H 0.0 **** 0.06
34215 H 103.40056577511301 33.08953340674609 31.642785992891675 H 0.0 **** 0.06
34216 C 50.56406156043812 84.15946465244032 98.5710879966673 C 0.0 **** -0.24
34217 H 51.522016864347336 84.02284048082909 98.06852648636914 H 0.0 **** 0.06
34218 H 49.88609877770932 83.35475701141561 98.2862711369907 H 0.0 **** 0.06
34219 H 50.13495536413717 85.1182752313387 98.27969528084657 H 0.0 **** 0.06
34220 H 50.71495534904665 84.14239447660923 99.65114925072305 H 0.0 **** 0.06
34221 C 60.02794236650105 38.02823832914116 35.870524376139684 C 0.0 **** -0.24
34222 H 60.88854181127584 38.554204754609444 35.458119931148616 H 0.0 **** 0.06
34223 H 59.19262744753381 38.72152427889928 35.97047010262605 H 0.0 **** 0.06
34224 H 60.28516660266048 37.6251702829565 36.85033733196103 H 0.0 **** 0.06
34225 H 59.747134917693316 37.21238258581767 35.20458359178312 H 0.0 **** 0.06
34226 C 36.648538943007374 2.6960371471874254 76.54697470919177 C 0.0 **** -0.24
34227 H 37.517173373992996 3.238160651127032 76.17244310872661 H 0.0 **** 0.06
34228 H 36.309592808309546 1.9870073412732268 75.79059656438 H 0.0 **** 0.06
34229 H 35.848078836405755 3.4018352426652996 76.76782125129263 H 0.0 **** 0.06
34230 H 36.919570850056914 2.157040646172362 77.45481942857606 H 0.0 **** 0.06
34231 C 9.407132094800694 105.13089598261664 85.82670742545538 C 0.0 **** -0.24
34232 H 10.044556085139124 105.61043887030205 85.08446233241678 H 0.0 **** 0.06
34233 H 9.528263003532409 105.63202953918771 86.7874915123736 H 0.0 **** 0.06
34234 H 9.688859640031211 104.08307244644163 85.92411331305337 H 0.0 **** 0.06
34235 H 8.366716071084092 105.19964264088989 85.51011161033829 H 0.0 **** 0.06
34236 C 24.71467407247684 115.30927320757934 105.79324780263244 C 0.0 **** -0.24
34237 H 23.812908140881092 115.76917396907822 106.19594244786265 H 0.0 **** 0.06
34238 H 24.440871232204557 114.57644211591423 105.03453894934 H 0.0 **** 0.06
34239 H 25.260358808051933 114.8146783791073 106.59642937904113 H 0.0 **** 0.06
34240 H 25.3456191870886 116.07765981696548 105.34571693857166 H 0.0 **** 0.06
34241 C 83.894981874773 61.47463550061116 97.72392912889384 C 0.0 **** -0.24
34242 H 83.1541476105912 61.67599533540556 98.49775492900037 H 0.0 **** 0.06
34243 H 83.46677053132026 60.80326977453967 96.97882864721497 H 0.0 **** 0.06
34244 H 84.77197872124356 61.008025805725765 98.1730421475486 H 0.0 **** 0.06
34245 H 84.18546749454813 62.41058496596338 97.24642700997141 H 0.0 **** 0.06
34246 C 110.95001714388039 59.96861032061011 15.04230552465367 C 0.0 **** -0.24
34247 H 110.06861408012244 60.31255733732692 15.582457888957748 H 0.0 **** 0.06
34248 H 110.66689575968147 59.17016275737244 14.355790139124167 H 0.0 **** 0.06
34249 H 111.68873933629948 59.59352102701624 15.751783637582093 H 0.0 **** 0.06
34250 H 111.37823271465416 60.798477291630846 14.478875077271567 H 0.0 **** 0.06
34251 C 51.76955568328947 5.079077723965137 97.11832240587057 C 0.0 **** -0.24
34252 H 52.03668888429422 6.1341849782964335 97.16789084457514 H 0.0 **** 0.06
34253 H 52.014177483686495 4.5970628749457045 98.06433210874602 H 0.0 **** 0.06
34254 H 52.32611886745219 4.6012071979235785 96.31098738282975 H 0.0 **** 0.06
34255 H 50.70008352492703 4.984116128503375 96.92714651258007 H 0.0 **** 0.06
34256 C 95.00750726337395 20.530190958776217 88.65624315954432 C 0.0 **** -0.24
34257 H 95.99062919386046 20.134335884662732 88.4001911658761 H 0.0 **** 0.06
34258 H 94.43650131673388 19.768317613856 89.18838304580538 H 0.0 **** 0.06
34259 H 94.47952389521294 20.809330923476807 87.74438352055324 H 0.0 **** 0.06
34260 H 95.12405626805025 21.408170993784523 89.29160836385427 H 0.0 **** 0.06
34261 C 41.60766699287615 34.36640894860946 12.066809650984396 C 0.0 **** -0.24
34262 H 42.05213403174565 33.37571989099975 11.973349624190838 H 0.0 **** 0.06
34263 H 42.305266808345436 35.03031618307691 12.577444784177452 H 0.0 **** 0.06
34264 H 40.68402851295775 34.29677238864736 12.641234799956333 H 0.0 **** 0.06
34265 H 41.38897959281542 34.76163843473925 11.07448860200509 H 0.0 **** 0.06
34266 C 107.8938294656306 58.30377573953962 35.29957983137107 C 0.0 **** -0.24
34267 H 107.21664358254975 57.51735794284653 34.965431785957264 H 0.0 **** 0.06
34268 H 108.40771038878434 57.97911909371936 36.20544578451548 H 0.0 **** 0.06
34269 H 107.32348384407106 59.2086127376283 35.50938075954926 H 0.0 **** 0.06
34270 H 108.62637509140735 58.508302410125765 34.5189843643285 H 0.0 **** 0.06
34271 C 87.78070406358745 98.58431587399184 31.12039108412833 C 0.0 **** -0.24
34272 H 88.61902590435591 98.13983951779181 31.657005308026015 H 0.0 **** 0.06
34273 H 86.93938172153457 97.89051399508546 31.123896212840208 H 0.0 **** 0.06
34274 H 88.07637954729529 98.79152326758825 30.091255166572466 H 0.0 **** 0.06
34275 H 87.48823810858897 99.5132419717448 31.608810433818576 H 0.0 **** 0.06
34276 C 45.19427632328253 82.5049508877721 36.43030690777755 C 0.0 **** -0.24
34277 H 46.11284165420422 82.42576756932135 35.84907694014055 H 0.0 **** 0.06
34278 H 44.36775054437355 82.07647179297712 35.863204298001165 H 0.0 **** 0.06
34279 H 44.9861953238218 83.55447063313214 36.640571519533125 H 0.0 **** 0.06
34280 H 45.31108177799615 81.96313825978744 37.36956416236728 H 0.0 **** 0.06
34281 C 108.47654927536168 45.0955850923971 31.87222288257621 C 0.0 **** -0.24
34282 H 108.5896920351139 45.364233852408205 30.821882405072444 H 0.0 **** 0.06
34283 H 109.42438853589657 45.24511257429896 32.389674180620375 H 0.0 **** 0.06
34284 H 108.1818359798088 44.04900425560396 31.94919807457228 H 0.0 **** 0.06
34285 H 107.7106221297107 45.72267032519787 32.327759085501384 H 0.0 **** 0.06
34286 C 61.39538868451534 60.070449542505344 24.595226397964993 C 0.0 **** -0.24
34287 H 61.81571238711443 59.0656657050979 24.64020405525884 H 0.0 **** 0.06
34288 H 62.07730502062684 60.72485556889421 24.052768672388595 H 0.0 **** 0.06
34289 H 61.254779099150284 60.449877297921034 25.607305976647652 H 0.0 **** 0.06
34290 H 60.434475473418274 60.03863410343763 24.081982679364863 H 0.0 **** 0.06
34291 C 44.48202481110974 94.32855839637273 45.017652482945834 C 0.0 **** -0.24
34292 H 43.468128569961024 94.67025713942644 44.80659561205499 H 0.0 **** 0.06
34293 H 44.92328390473512 94.958501805418 45.79046507743885 H 0.0 **** 0.06
34294 H 45.081953260651375 94.39251680977378 44.110497774804685 H 0.0 **** 0.06
34295 H 44.45255918693169 93.29520636165216 45.36258563371581 H 0.0 **** 0.06
34296 C 90.09988785995124 68.29343311888228 115.09858579545755 C 0.0 **** -0.24
34297 H 90.79799535117513 67.48946145237069 115.33329430541835 H 0.0 **** 0.06
34298 H 89.28710935904384 68.2907497755765 115.82591347170614 H 0.0 **** 0.06
34299 H 89.6937055776763 68.140174184174 114.0984711816804 H 0.0 **** 0.06
34300 H 90.6204790671792 69.24989684447323 115.13808833571912 H 0.0 **** 0.06
34301 C 100.45812516799663 6.5674939440747835 37.02051714756573 C 0.0 **** -0.24
34302 H 99.83583864104915 6.6529196154726264 37.91167791951767 H 0.0 **** 0.06
34303 H 100.61194858967326 5.5135676494390395 36.785463188175925 H 0.0 **** 0.06
34304 H 101.42047645985649 7.0437600797068285 37.203391465073764 H 0.0 **** 0.06
34305 H 99.96202252077202 7.057779490264693 36.18360930731063 H 0.0 **** 0.06
34306 C 66.86284167824968 57.295938097518786 89.77673757314108 C 0.0 **** -0.24
34307 H 65.90581513871112 57.481203475745986 90.26598759192329 H 0.0 **** 0.06
34308 H 67.66481251276224 57.73516574372064 90.37003379609439 H 0.0 **** 0.06
34309 H 66.85554782540072 57.747342472755975 88.78441984820124 H 0.0 **** 0.06
34310 H 67.02243633487703 56.22212251339806 89.68678698708223 H 0.0 **** 0.06
34311 C 62.89979310563757 51.08342764413476 90.29349524511292 C 0.0 **** -0.24
34312 H 62.744225946359336 50.060314053942164 90.63795871312561 H 0.0 **** 0.06
34313 H 62.854737693305765 51.11043860676119 89.20437724446782 H 0.0 **** 0.06
34314 H 63.87572207975734 51.434495876426325 90.62642646689406 H 0.0 **** 0.06
34315 H 62.12208309808375 51.72673672588763 90.70571503134516 H 0.0 **** 0.06
34316 C 83.55341380741504 0.8494181129615299 45.597113729109225 C 0.0 **** -0.24
34317 H 83.40909553773486 1.8193309319956938 46.07433902482967 H 0.0 **** 0.06
34318 H 82.72484407093081 0.6528332449611582 44.916288370178705 H 0.0 **** 0.06
34319 H 83.590524077605 0.07212176561191086 46.36002574362115 H 0.0 **** 0.06
34320 H 84.48871961598631 0.8565387848398416 45.0387188758325 H 0.0 **** 0.06
34321 C 31.53380375570771 112.49898977820807 50.30494899432216 C 0.0 **** -0.24
34322 H 30.98872878266522 113.23647884695296 49.71707008174212 H 0.0 **** 0.06
34323 H 32.60460652449393 112.68073328540056 50.21343791524717 H 0.0 **** 0.06
34324 H 31.301764561871096 111.4989833225614 49.93845416576579 H 0.0 **** 0.06
34325 H 31.239261625446403 112.57894895488876 51.352101851958594 H 0.0 **** 0.06
34326 C 72.55684427373016 109.30293896243438 83.26357274162149 C 0.0 **** -0.24
34327 H 71.66455467055448 108.9301144863345 83.76772529697234 H 0.0 **** 0.06
34328 H 72.34249732950781 110.27401341320737 82.81735715577702 H 0.0 **** 0.06
34329 H 72.85215080596957 108.60184706853497 82.48398780674847 H 0.0 **** 0.06
34330 H 73.36500593764681 109.4063161728709 83.98685647987418 H 0.0 **** 0.06
34331 C 106.1210291983557 23.306715190211506 100.32525226983941 C 0.0 **** -0.24
34332 H 107.00325311426384 23.34710681769394 100.9642538680256 H 0.0 **** 0.06
34333 H 105.50054793001297 24.184124410461095 100.5067587218852 H 0.0 **** 0.06
34334 H 105.55220176140297 22.404560302474408 100.54797496734906 H 0.0 **** 0.06
34335 H 106.43137967920772 23.291548044276638 99.28025891254921 H 0.0 **** 0.06
34336 C 76.51213795586814 5.0704979256615506 1.4547485157553801 C 0.0 **** -0.24
34337 H 76.98476474636935 4.982325729032739 0.4770302143869092 H 0.0 **** 0.06
34338 H 76.4420075032296 6.12278402196055 1.7306547666228358 H 0.0 **** 0.06
34339 H 77.11035037365012 4.5392391782682715 2.196045815556861 H 0.0 **** 0.06
34340 H 75.51294924263561 4.635795024299242 1.4157882765078735 H 0.0 **** 0.06
34341 C 88.77766006229405 34.15869601566709 108.74875250889107 C 0.0 **** -0.24
34342 H 87.98159783012048 34.351290050053876 108.03045525974206 H 0.0 **** 0.06
34343 H 89.34643152164327 35.07343254224031 108.91526275047457 H 0.0 **** 0.06
34344 H 89.43966428205388 33.38520384509866 108.35908233407297 H 0.0 **** 0.06
34345 H 88.34356965058117 33.823622167473786 109.69050224016802 H 0.0 **** 0.06
34346 C 39.43703540977546 89.53927442504596 103.44374321374096 C 0.0 **** -0.24
34347 H 40.442490030396925 89.12235142564339 103.49426774123216 H 0.0 **** 0.06
34348 H 38.7537672079128 88.79301343231566 103.03681727442125 H 0.0 **** 0.06
34349 H 39.439899517439244 90.41823968465724 102.80024547296273 H 0.0 **** 0.06
34350 H 39.110958485496525 89.82229931326896 104.44523029819182 H 0.0 **** 0.06
34351 C 38.59749844114294 72.99193843955533 88.24372774814304 C 0.0 **** -0.24
34352 H 39.665147333216225 72.9310890038318 88.03345952477159 H 0.0 **** 0.06
34353 H 38.06735330142149 73.3013528887102 87.34297784621003 H 0.0 **** 0.06
34354 H 38.425012799451544 73.72206519395958 89.03548103763524 H 0.0 **** 0.06
34355 H 38.233679995382985 72.01575446806511 88.56412053491897 H 0.0 **** 0.06
34356 C 70.55218710520273 14.935053659350075 47.3201454270088 C 0.0 **** -0.24
34357 H 70.29617131212277 15.430007677845367 48.257256424385275 H 0.0 **** 0.06
34358 H 71.4355443998843 14.313030376015746 47.46747677685567 H 0.0 **** 0.06
34359 H 70.75892035967411 15.685664547536447 46.55718198122491 H 0.0 **** 0.06
34360 H 69.71751021168595 14.31090068333964 46.9997907106715 H 0.0 **** 0.06
34361 C 82.67429692191371 95.91582604851861 33.54975692926317 C 0.0 **** -0.24
34362 H 82.9333754293539 96.37000209187926 34.50629653518965 H 0.0 **** 0.06
34363 H 83.02961619822167 94.88519393764155 33.529576215631124 H 0.0 **** 0.06
34364 H 83.14193454417423 96.47822470680703 32.74186316588106 H 0.0 **** 0.06
34365 H 81.59153105512043 95.92989395655036 33.42340523384374 H 0.0 **** 0.06
34366 C 69.41299430561816 35.79084170657808 90.68877331341673 C 0.0 **** -0.24
34367 H 69.09247677146027 35.45601529961556 89.70155681361314 H 0.0 **** 0.06
34368 H 68.58455870364901 35.69498424174108 91.39108050376151 H 0.0 **** 0.06
34369 H 69.72523350903623 36.83393184345543 90.63412696064259 H 0.0 **** 0.06
34370 H 70.24885211913761 35.179127601451185 91.02638263065319 H 0.0 **** 0.06
34371 C 40.370226444914636 49.819323538809726 100.35159399620522 C 0.0 **** -0.24
34372 H 39.338354530525095 49.526191601877144 100.54526014991683 H 0.0 **** 0.06
34373 H 40.45028945246898 50.22235768429249 99.34143509149152 H 0.0 **** 0.06
34374 H 41.01897648793283 48.94879359531103 100.44749781038385 H 0.0 **** 0.06
34375 H 40.67306244100462 50.57899985506975 101.07239551081949 H 0.0 **** 0.06
34376 C 2.4248027147365008 108.7569045890967 99.43053428177251 C 0.0 **** -0.24
34377 H 2.2626247050723975 107.69996065636539 99.21746055771109 H 0.0 **** 0.06
34378 H 2.9853513512509693 109.20959777012112 98.61176829268351 H 0.0 **** 0.06
34379 H 2.9880605321274345 108.85913852161045 100.35819446607215 H 0.0 **** 0.06
34380 H 1.4623851450594003 109.2587590520543 99.53262785621135 H 0.0 **** 0.06
34381 C 53.54980808939666 109.82684421363734 72.1546311459839 C 0.0 **** -0.24
34382 H 54.012136510031546 110.7618151516279 71.83708057063285 H 0.0 **** 0.06
34383 H 52.53786484348006 110.02402459405596 72.5085694502767 H 0.0 **** 0.06
34384 H 54.13827551149936 109.38764450071119 72.96094580504604 H 0.0 **** 0.06
34385 H 53.513120506407795 109.1357413547056 71.31363036803484 H 0.0 **** 0.06
34386 C 29.530979592259683 3.8077372929605637 71.21909118321477 C 0.0 **** -0.24
34387 H 29.975312917774374 2.8484392187410847 70.95078586451703 H 0.0 **** 0.06
34388 H 29.426962774049173 4.421960096715685 70.3243105183553 H 0.0 **** 0.06
34389 H 30.172781120518266 4.316482564186902 71.9373435880294 H 0.0 **** 0.06
34390 H 28.5493989509537 3.6416895457757494 71.66167572775511 H 0.0 **** 0.06
34391 C 28.29465737160652 5.7364941066434625 112.7606292447262 C 0.0 **** -0.24
34392 H 28.793925484762916 6.503068845332146 112.16845608989814 H 0.0 **** 0.06
34393 H 28.440129462288645 5.944250065950403 113.82071031992584 H 0.0 **** 0.06
34394 H 28.715676861078848 4.759996702901589 112.52054387739562 H 0.0 **** 0.06
34395 H 27.22836848266445 5.738571496488264 112.5319628720861 H 0.0 **** 0.06
34396 C 71.9797008849333 96.87522028706854 64.52381732856651 C 0.0 **** -0.24
34397 H 72.17148274311256 97.23195327062385 65.53527459091787 H 0.0 **** 0.06
34398 H 71.7265598329015 97.72008136287212 63.88256388422201 H 0.0 **** 0.06
34399 H 71.1511697814426 96.16812917342412 64.53795375704856 H 0.0 **** 0.06
34400 H 72.87222674241258 96.38152885339298 64.13829564958351 H 0.0 **** 0.06
34401 C 71.06614892032337 99.29062643392443 74.38304591503078 C 0.0 **** -0.24
34402 H 70.61060752341929 98.37579464891915 74.00346401533 H 0.0 **** 0.06
34403 H 71.21880828584072 99.9879965715508 73.55921427188429 H 0.0 **** 0.06
34404 H 72.02509439537245 99.05415528115337 74.84375135624578 H 0.0 **** 0.06
34405 H 70.40815182289245 99.74365944605773 75.1250819683471 H 0.0 **** 0.06
34406 C 28.247187753117743 45.51470755827086 15.8462969838655 C 0.0 **** -0.24
34407 H 28.484272738638566 45.937688157420666 16.822676364855056 H 0.0 **** 0.06
34408 H 29.047708846901912 45.751190880021994 15.144452099510431 H 0.0 **** 0.06
34409 H 27.31021536085916 45.9372302261236 15.485765722986883 H 0.0 **** 0.06
34410 H 28.148535565410555 44.43224020351133 15.934494438040758 H 0.0 **** 0.06
34411 C 27.799007136491298 32.91021338524706 94.73973432808455 C 0.0 **** -0.24
34412 H 28.527204253608943 32.59532578043414 93.99126629542279 H 0.0 **** 0.06
34413 H 27.255804278682433 32.03990921089755 95.1058979071368 H 0.0 **** 0.06
34414 H 27.098541204137973 33.61411525930433 94.29044357902818 H 0.0 **** 0.06
34415 H 28.315825147847306 33.392436923977954 95.56902385160964 H 0.0 **** 0.06
34416 C 105.22384078479354 3.418904734605036 15.42987689332611 C 0.0 **** -0.24
34417 H 106.28337597703353 3.1688475781354075 15.37396483262549 H 0.0 **** 0.06
34418 H 104.76427870567576 2.8676877214728904 16.2515247315157 H 0.0 **** 0.06
34419 H 104.73721894300559 3.14796993611459 14.493401041791913 H 0.0 **** 0.06
34420 H 105.11184656709557 4.489353765269335 15.602366676082568 H 0.0 **** 0.06
34421 C 36.267796059172156 74.98282087859288 41.67199822971418 C 0.0 **** -0.24
34422 H 36.80296863386491 74.06496748442417 41.91699019032504 H 0.0 **** 0.06
34423 H 36.89452109326771 75.609958480663 41.038601302876486 H 0.0 **** 0.06
34424 H 36.025672961214525 75.51752113709409 42.5896307849402 H 0.0 **** 0.06
34425 H 35.34735334503756 74.73477566751272 41.14251603579112 H 0.0 **** 0.06
34426 C 41.426530188035315 94.51841783940047 96.75174001559711 C 0.0 **** -0.24
34427 H 41.52551833376327 93.70363552186544 96.0341163625282 H 0.0 **** 0.06
34428 H 41.16919985769755 95.43720604088784 96.2239361266254 H 0.0 **** 0.06
34429 H 42.37056572874502 94.65523754869913 97.27929174444043 H 0.0 **** 0.06
34430 H 40.640859535499715 94.2782363385035 97.46747458758955 H 0.0 **** 0.06
34431 C 98.611163321552 2.5848362978686588 33.633786733887206 C 0.0 **** -0.24
34432 H 97.92989469775733 2.2373079874369903 32.85635586365544 H 0.0 **** 0.06
34433 H 98.8600195804663 1.7559292197445124 34.29605944585302 H 0.0 **** 0.06
34434 H 98.13258403451616 3.3781492402607576 34.20742595694077 H 0.0 **** 0.06
34435 H 99.5217435666238 2.967654665962918 33.172349524195454 H 0.0 **** 0.06
34436 C 65.07135170623948 101.33990452580366 50.104142178702816 C 0.0 **** -0.24
34437 H 65.09393013318753 102.10366736612764 49.32733586741523 H 0.0 **** 0.06
34438 H 64.03651254038223 101.09950369014902 50.348473734335116 H 0.0 **** 0.06
34439 H 65.57803546167112 101.71228517028388 50.99372955804101 H 0.0 **** 0.06
34440 H 65.57752970082112 100.44313880772913 49.74625999062859 H 0.0 **** 0.06
34441 C 66.51742917431824 94.57671015467156 67.44460466978771 C 0.0 **** -0.24
34442 H 67.14206060223412 95.07336312640143 66.70219511080869 H 0.0 **** 0.06
34443 H 65.55511921162564 95.08450460152233 67.50760368604006 H 0.0 **** 0.06
34444 H 67.01123657782524 94.61166808245017 68.41588669154451 H 0.0 **** 0.06
34445 H 66.36260369709996 93.53838378031708 67.15310354270643 H 0.0 **** 0.06
34446 C 92.63500156819191 41.3226855455799 1.3018995347854059 C 0.0 **** -0.24
34447 H 93.39510964220085 40.75744178774519 0.7630760615042504 H 0.0 **** 0.06
34448 H 91.95519622204614 41.78756912283913 0.5872579784133194 H 0.0 **** 0.06
34449 H 93.11489532863976 42.09418291171778 1.9032607342434176 H 0.0 **** 0.06
34450 H 92.07478365572882 40.650921097438655 1.9516355761734019 H 0.0 **** 0.06
34451 C 10.244355387509131 19.272219275591226 97.31196564872312 C 0.0 **** -0.24
34452 H 10.946833485027113 19.659416247469835 98.05069742653495 H 0.0 **** 0.06
34453 H 10.326998819946994 18.185652399012866 97.26688662038225 H 0.0 **** 0.06
34454 H 10.47543303474636 19.694805035074893 96.3348567130327 H 0.0 **** 0.06
34455 H 9.228754529087084 19.548615289047916 97.59700029589285 H 0.0 **** 0.06
34456 C 32.604021975868136 7.138199079014726 25.503029780347532 C 0.0 **** -0.24
34457 H 33.6736295255638 7.107602484194672 25.70695379968825 H 0.0 **** 0.06
34458 H 32.119680701188656 6.280660017594585 25.97158065415823 H 0.0 **** 0.06
34459 H 32.438530865106884 7.105740523629507 24.42609399028916 H 0.0 **** 0.06
34460 H 32.18289047994659 8.059134162914546 25.907280239075163 H 0.0 **** 0.06
34461 C 94.13856851030314 45.9015557847149 51.238603527256714 C 0.0 **** -0.24
34462 H 93.58004453029264 46.025614990467716 52.166089268950486 H 0.0 **** 0.06
34463 H 93.44235408870907 45.77786169854946 50.40841868640945 H 0.0 **** 0.06
34464 H 94.77569121100473 45.01958214582598 51.312480347259736 H 0.0 **** 0.06
34465 H 94.75638255744718 46.782981529253135 51.066037510372524 H 0.0 **** 0.06
34466 C 20.047795775174762 31.29585823657854 8.747773410116345 C 0.0 **** -0.24
34467 H 20.99934906237428 31.445289086672346 9.2588256240922 H 0.0 **** 0.06
34468 H 19.296697076320868 30.966885131893108 9.467102327927211 H 0.0 **** 0.06
34469 H 20.166122091648816 30.537628400811897 7.973190297702688 H 0.0 **** 0.06
34470 H 19.72901487035523 32.23363032693659 8.291975390743243 H 0.0 **** 0.06
34471 C 95.25563357522054 100.201897704017 26.215356504910915 C 0.0 **** -0.24
34472 H 96.06389950574368 99.50222405060016 26.431965859397053 H 0.0 **** 0.06
34473 H 95.34110182246647 100.54560729768882 25.183720648774397 H 0.0 **** 0.06
34474 H 95.32298110132876 101.05494883520123 26.889187736630618 H 0.0 **** 0.06
34475 H 94.29670845819618 99.7024882328436 26.354562707550144 H 0.0 **** 0.06
34476 C 1.503313033887821 61.875056428505786 115.64688422907712 C 0.0 **** -0.24
34477 H 1.4825629713691342 61.53993885821279 116.68437748753482 H 0.0 **** 0.06
34478 H 0.8677943684141951 62.754770576220665 115.537858143822 H 0.0 **** 0.06
34479 H 1.1351509872700944 61.077725132982096 115.00106453165219 H 0.0 **** 0.06
34480 H 2.5256600244517244 62.126920618892996 115.36704758320406 H 0.0 **** 0.06
34481 C 19.78545137737668 68.11120465825695 31.322951242335705 C 0.0 **** -0.24
34482 H 18.908709685783577 68.2470845089689 30.688750724020622 H 0.0 **** 0.06
34483 H 20.560844174000923 68.81690129821965 31.025436876724086 H 0.0 **** 0.06
34484 H 20.158418301419427 67.092118240898 31.21357031566515 H 0.0 **** 0.06
34485 H 19.51201565480957 68.28743792859126 32.36301434769797 H 0.0 **** 0.06
34486 C 37.40089884760337 84.2477941309057 59.753359218151985 C 0.0 **** -0.24
34487 H 38.2367436546743 84.55609769557742 59.1261998581148 H 0.0 **** 0.06
34488 H 36.72625507066677 85.09159045812356 59.900002039787594 H 0.0 **** 0.06
34489 H 37.77616835057354 83.90994044555526 60.71907564230807 H 0.0 **** 0.06
34490 H 36.86308268396053 83.43248441245967 59.26791768913782 H 0.0 **** 0.06
34491 C 59.40663939939435 110.01052950299827 14.713661535305246 C 0.0 **** -0.24
34492 H 60.032040320386784 110.76113665187498 15.197808411341022 H 0.0 **** 0.06
34493 H 58.35684455919562 110.24284727091731 14.89222466775113 H 0.0 **** 0.06
34494 H 59.6359911082057 109.02754021154276 15.124668084257177 H 0.0 **** 0.06
34495 H 59.602421946465995 110.01082654976835 13.641127297209948 H 0.0 **** 0.06
34496 C 104.72481507800273 17.00283724276352 89.65222054411917 C 0.0 **** -0.24
34497 H 105.01999148443969 17.216627222528274 88.62497359912247 H 0.0 **** 0.06
34498 H 104.42236004326429 17.927813772306195 90.14285779083389 H 0.0 **** 0.06
34499 H 105.56635513587534 16.564122390747542 90.18783900178332 H 0.0 **** 0.06
34500 H 103.88920931672457 16.30139302099434 89.65091961367109 H 0.0 **** 0.06
34501 C 113.36230466314345 108.6623566519839 14.925926120522888 C 0.0 **** -0.24
34502 H 112.66550574045733 109.42072616440248 15.283877984290484 H 0.0 **** 0.06
34503 H 114.20461822499719 108.58867430119072 15.615597396563203 H 0.0 **** 0.06
34504 H 113.7260843306028 108.942028099506 13.93712138773796 H 0.0 **** 0.06
34505 H 112.85368430495653 107.69986504467761 14.868543136363172 H 0.0 **** 0.06
34506 C 18.11195985067701 69.99093884292012 80.50152651707991 C 0.0 **** -0.24
34507 H 19.181496347569862 70.20096311493026 80.52357337563824 H 0.0 **** 0.06
34508 H 17.87074559706437 69.4299112783076 79.59851138703789 H 0.0 **** 0.06
34509 H 17.557985968112973 70.92905608722751 80.50667078897196 H 0.0 **** 0.06
34510 H 17.840348856611712 69.40353515225996 81.37854357447175 H 0.0 **** 0.06
34511 C 75.55059046086859 81.90644070785635 82.72134576263869 C 0.0 **** -0.24
34512 H 76.0290878294245 82.88163378880449 82.80557294205227 H 0.0 **** 0.06
34513 H 76.13954702079295 81.16388209550496 83.26002326436604 H 0.0 **** 0.06
34514 H 75.48393473230001 81.62461423579441 81.67063200793716 H 0.0 **** 0.06
34515 H 74.54848951591327 81.95541308340518 83.14865012573361 H 0.0 **** 0.06
34516 C 79.28815103503428 64.97373265662384 11.999113533266375 C 0.0 **** -0.24
34517 H 80.04308504149043 64.98146590022577 12.784665784035852 H 0.0 **** 0.06
34518 H 79.71007665989947 65.39680339718174 11.08638598233501 H 0.0 **** 0.06
34519 H 78.43109473328269 65.56885988816214 12.313445515874097 H 0.0 **** 0.06
34520 H 78.96934578754104 63.94775085370577 11.810956157647862 H 0.0 **** 0.06
34521 C 5.810643491788895 29.80237419587837 22.468487387511402 C 0.0 **** -0.24
34522 H 5.88894144100783 28.80023961557822 22.89000994595841 H 0.0 **** 0.06
34523 H 6.795370881798107 30.27127177524534 22.45917777105936 H 0.0 **** 0.06
34524 H 5.130229074638052 30.399415117705445 23.07569074190087 H 0.0 **** 0.06
34525 H 5.428998610082388 29.73953473951329 21.449440804393618 H 0.0 **** 0.06
34526 C 10.36421214367667 46.087353777522935 33.938438373161496 C 0.0 **** -0.24
34527 H 10.050840650435568 46.130458421181686 32.89480342004754 H 0.0 **** 0.06
34528 H 10.575042732834675 47.09644449279608 34.29499277884179 H 0.0 **** 0.06
34529 H 11.262998647085947 45.47689155699186 34.02261213538517 H 0.0 **** 0.06
34530 H 9.567754230827862 45.647946880818836 34.53899055691479 H 0.0 **** 0.06
34531 C 115.56934040827787 21.870534882944334 70.35931634726545 C 0.0 **** -0.24
34532 H 114.57466908151673 21.894086763164136 69.91459644442021 H 0.0 **** 0.06
34533 H 115.5235909736478 22.269154226963327 71.37304520268003 H 0.0 **** 0.06
34534 H 116.24944353472318 22.47673790290264 69.76027107836545 H 0.0 **** 0.06
34535 H 115.9298995020203 20.841793651775944 70.38800836752145 H 0.0 **** 0.06
34536 C 26.29828234631202 78.06841238261723 68.70424487328035 C 0.0 **** -0.24
34537 H 25.751809523588093 77.13619041210404 68.84908007907222 H 0.0 **** 0.06
34538 H 25.69068510554277 78.75848525920861 68.1197129986769 H 0.0 **** 0.06
34539 H 27.228368480099903 77.86408006385847 68.17322257540681 H 0.0 **** 0.06
34540 H 26.523351156674465 78.51188691343339 69.67407935090583 H 0.0 **** 0.06
34541 C 14.60846787363829 10.085767823888588 49.29497907774481 C 0.0 **** -0.24
34542 H 15.492304525024196 10.72345702075117 49.30015606161635 H 0.0 **** 0.06
34543 H 14.05655838641735 10.223098372900068 50.2258576413426 H 0.0 **** 0.06
34544 H 14.913542517298538 9.043269630415338 49.20422924097795 H 0.0 **** 0.06
34545 H 13.971679451868653 10.352586345067294 48.451260545072046 H 0.0 **** 0.06
34546 C 54.0465945961885 80.26510983698132 40.13729093785696 C 0.0 **** -0.24
34547 H 52.99929350521717 79.97111877855173 40.07078369547996 H 0.0 **** 0.06
34548 H 54.63507590965389 79.67199139541559 39.436222541008334 H 0.0 **** 0.06
34549 H 54.40812775406141 80.09422218604303 41.15137414468472 H 0.0 **** 0.06
34550 H 54.14394313711247 81.32191084480742 39.8895321396582 H 0.0 **** 0.06
34551 C 58.374914834660785 19.76056205163522 66.89130082405444 C 0.0 **** -0.24
34552 H 58.011055637973755 18.976264819927735 66.22728733770941 H 0.0 **** 0.06
34553 H 59.2319912417521 20.25485638995056 66.43368012280126 H 0.0 **** 0.06
34554 H 58.67285506203302 19.320929450433994 67.84258694703516 H 0.0 **** 0.06
34555 H 57.58213858971396 20.489619374432323 67.05919008968095 H 0.0 **** 0.06
34556 C 89.93180138814252 3.6038698129428894 9.246385161114219 C 0.0 **** -0.24
34557 H 89.83852347905399 2.991995135135113 8.34935553806865 H 0.0 **** 0.06
34558 H 88.95154514708567 3.988394112950971 9.526523108518731 H 0.0 **** 0.06
34559 H 90.60598818329132 4.437846718232436 9.048535969475637 H 0.0 **** 0.06
34560 H 90.33123367804984 2.9985020311281687 10.059574070651394 H 0.0 **** 0.06
34561 C 17.221863313201652 7.586055832544199 39.14587794611609 C 0.0 **** -0.24
34562 H 16.742363076569774 6.633815800398196 39.374296512028764 H 0.0 **** 0.06
34563 H 17.11422207216262 8.259443529445669 39.996435968155225 H 0.0 **** 0.06
34564 H 16.75075663156281 8.028272748909808 38.26824520589108 H 0.0 **** 0.06
34565 H 18.280247383848476 7.419487019369759 38.94537970500056 H 0.0 **** 0.06
34566 C 57.93520891470094 21.857518109950547 98.3363698561127 C 0.0 **** -0.24
34567 H 58.2070922105307 21.099445103341594 99.07069834455325 H 0.0 **** 0.06
34568 H 57.18790965786201 22.52544384330676 98.76483641619154 H 0.0 **** 0.06
34569 H 57.52462697936981 21.374255370456666 97.44949208238063 H 0.0 **** 0.06
34570 H 58.81991399030149 22.431485418580678 98.0605873016161 H 0.0 **** 0.06
34571 C 17.24617909607709 115.44021754731703 66.22759335089927 C 0.0 **** -0.24
34572 H 17.659758426970896 115.62395666826505 65.236007941764 H 0.0 **** 0.06
34573 H 16.16413062486579 115.32659351499944 66.15442713153848 H 0.0 **** 0.06
34574 H 17.47910550163227 116.2814126847436 66.8798866451601 H 0.0 **** 0.06
34575 H 17.680433731359212 114.52897865310726 66.63947218084523 H 0.0 **** 0.06
34576 C 3.885519345436247 51.55319988279034 77.89674367113173 C 0.0 **** -0.24
34577 H 3.897758383336118 50.48579598991403 78.1192672464781 H 0.0 **** 0.06
34578 H 2.8704772724263385 51.93534753061116 78.00627144441654 H 0.0 **** 0.06
34579 H 4.226661447325865 51.71492245356283 76.87462069268258 H 0.0 **** 0.06
34580 H 4.547975324920348 52.07579342682006 78.58751112439688 H 0.0 **** 0.06
34581 C 69.09327173302334 44.553944240901444 24.378253076257465 C 0.0 **** -0.24
34582 H 68.70597858239016 43.68172837169905 24.904337683596793 H 0.0 **** 0.06
34583 H 70.09759924472587 44.34120763835517 24.012987558463408 H 0.0 **** 0.06
34584 H 69.12640659433599 45.40372743811082 25.060137346589727 H 0.0 **** 0.06
34585 H 68.44167321508596 44.78878425419498 23.53690946955453 H 0.0 **** 0.06
34586 C 58.35309550091361 87.99157702193115 60.75548373373681 C 0.0 **** -0.24
34587 H 59.29947749835243 88.00389983662832 60.214110608020434 H 0.0 **** 0.06
34588 H 57.69302974604619 88.75871116182732 60.348299412359125 H 0.0 **** 0.06
34589 H 58.53610630379494 88.1915096796064 61.81034648521715 H 0.0 **** 0.06
34590 H 57.88552142000668 87.01301207317576 60.645977204356754 H 0.0 **** 0.06
34591 C 99.27303387230774 5.042612820351733 18.000979154215152 C 0.0 **** -0.24
34592 H 99.47810393147441 5.265239569852531 19.047985429440036 H 0.0 **** 0.06
34593 H 99.61169425055397 5.872146682941612 17.379732576118133 H 0.0 **** 0.06
34594 H 98.20136162178898 4.89798812827725 17.86328436657971 H 0.0 **** 0.06
34595 H 99.80181816266696 4.13316701031985 17.713716015584893 H 0.0 **** 0.06
34596 C 82.24568386447176 72.75681825909265 32.84568062024164 C 0.0 **** -0.24
34597 H 82.39493773512173 71.89014080824666 32.201250588198604 H 0.0 **** 0.06
34598 H 82.9410046956879 72.7096870743485 33.6846473835688 H 0.0 **** 0.06
34599 H 81.22222444170431 72.75653537602028 33.22131383311341 H 0.0 **** 0.06
34600 H 82.42350312996689 73.66894501898793 32.27558004520006 H 0.0 **** 0.06
34601 C 14.050081728037355 105.30289309925314 66.52351531198728 C 0.0 **** -0.24
34602 H 14.938074340999322 105.06699580246753 65.93677588251168 H 0.0 **** 0.06
34603 H 14.172843401806034 104.9208511158529 67.53667818916665 H 0.0 **** 0.06
34604 H 13.177732814317125 104.83991990559825 66.06215238116573 H 0.0 **** 0.06
34605 H 13.912884684208308 106.38361028696252 66.5557157595675 H 0.0 **** 0.06
34606 C 108.84813498003875 16.255581498714832 2.8307654555410693 C 0.0 **** -0.24
34607 H 109.52013263166221 17.114580957491796 2.8269290200934307 H 0.0 **** 0.06
34608 H 109.12482022015382 15.575556184148354 2.024006195959217 H 0.0 **** 0.06
34609 H 107.82295221573905 16.595343958070885 2.685292789440581 H 0.0 **** 0.06
34610 H 108.92742479258683 15.737232941183606 3.7858012630882456 H 0.0 **** 0.06
34611 C 30.611550566602574 22.13527826422083 19.543403920822072 C 0.0 **** -0.24
34612 H 30.326957406684755 21.09912935035706 19.358174977262863 H 0.0 **** 0.06
34613 H 30.181155621910875 22.465697687958993 20.489596206126492 H 0.0 **** 0.06
34614 H 30.239852414679262 22.764367249317644 18.735082177339336 H 0.0 **** 0.06
34615 H 31.697327376045905 22.209895962001724 19.591802273520955 H 0.0 **** 0.06
34616 C 46.41958812116411 108.02986076203463 88.42174123469033 C 0.0 **** -0.24
34617 H 46.340615032438905 107.52566898420305 89.38475496341567 H 0.0 **** 0.06
34618 H 47.06525764902091 107.45227225998798 87.76078140586287 H 0.0 **** 0.06
34619 H 46.841545513935785 109.02444173344375 88.5665141934409 H 0.0 **** 0.06
34620 H 45.42856506527028 108.11803840975533 87.97647326723464 H 0.0 **** 0.06
34621 C 84.99755471543696 93.42965333062438 97.9355409120631 C 0.0 **** -0.24
34622 H 84.7952836400382 94.48608649060728 97.76160732027067 H 0.0 **** 0.06
34623 H 84.06764101729439 92.86438424003258 97.86745296185978 H 0.0 **** 0.06
34624 H 85.42939360476458 93.30122515614892 98.92844975687301 H 0.0 **** 0.06
34625 H 85.69945694989097 93.06616288302948 97.1847463172316 H 0.0 **** 0.06
34626 C 3.8839514814414997 74.18313606544973 47.271612764207845 C 0.0 **** -0.24
34627 H 3.905876157994612 75.17965334289552 46.82922578117932 H 0.0 **** 0.06
34628 H 4.44051719784423 74.19011760627303 48.208869625882684 H 0.0 **** 0.06
34629 H 4.33811294923683 73.46976186705093 46.583747093466485 H 0.0 **** 0.06
34630 H 2.849960230200253 73.89469928944283 47.464010642832456 H 0.0 **** 0.06
34631 C 24.311110717371946 99.28055133179015 98.39824044358444 C 0.0 **** -0.24
34632 H 24.66196722873724 99.00020186908176 99.3910810163845 H 0.0 **** 0.06
34633 H 23.53282127313895 100.03766612634172 98.48835273305984 H 0.0 **** 0.06
34634 H 23.90786779031089 98.40194661965398 97.89473924839432 H 0.0 **** 0.06
34635 H 25.143311033843588 99.68092667832155 97.81951879136423 H 0.0 **** 0.06
34636 C 98.88789266275919 102.03047104751153 89.96505004109736 C 0.0 **** -0.24
34637 H 99.11788580572397 102.58365212742981 90.875965752681 H 0.0 **** 0.06
34638 H 99.78104336782513 101.96775448588068 89.34256384519239 H 0.0 **** 0.06
34639 H 98.09812540542475 102.5445725122529 89.41788564294819 H 0.0 **** 0.06
34640 H 98.55492784397612 101.02575295177206 90.22468345708256 H 0.0 **** 0.06
34641 C 97.77957908958653 0.28940880156233106 110.20521267371751 C 0.0 **** -0.24
34642 H 97.55395209621727 0.08334137781231732 111.25176618966421 H 0.0 **** 0.06
34643 H 96.86905401070722 0.19694789690510106 109.61312094075845 H 0.0 **** 0.06
34644 H 98.52090306238323 -0.4255159650402476 109.84652343530223 H 0.0 **** 0.06
34645 H 98.17471842264675 1.3009401141940913 110.11054020661595 H 0.0 **** 0.06
34646 C 35.082060925516885 110.17174039496808 21.896588537205453 C 0.0 **** -0.24
34647 H 34.63654043279496 110.51132789821398 22.831832566505987 H 0.0 **** 0.06
34648 H 34.47061163946924 109.3752349824812 21.471983450349878 H 0.0 **** 0.06
34649 H 36.086853574634574 109.79466513372918 22.088649899005205 H 0.0 **** 0.06
34650 H 35.13358887148084 111.00407337033856 21.19523826890413 H 0.0 **** 0.06
34651 C 82.69105917281071 26.785930106433227 7.78609787119575 C 0.0 **** -0.24
34652 H 83.25663992107665 27.643362821896147 7.422684807131773 H 0.0 **** 0.06
34653 H 83.19313145376455 25.865573427457576 7.486986536385359 H 0.0 **** 0.06
34654 H 81.68710626364631 26.806513045908844 7.360784436895315 H 0.0 **** 0.06
34655 H 82.62625848012942 26.828596698686937 8.873109351567564 H 0.0 **** 0.06
34656 C 81.84800567660996 66.1557618674716 115.02376545737368 C 0.0 **** -0.24
34657 H 82.16111447167027 66.5725231402239 115.98099869623087 H 0.0 **** 0.06
34658 H 82.45449798355041 66.58449707665375 114.2254085144206 H 0.0 **** 0.06
34659 H 80.7983466620385 66.3945686848432 114.85015422609081 H 0.0 **** 0.06
34660 H 81.97736457710901 65.07357805823119 115.03836100733321 H 0.0 **** 0.06
34661 C 95.8851512577802 12.052874770187884 104.4451021252757 C 0.0 **** -0.24
34662 H 95.65469031082239 11.30352343312353 103.68763470259927 H 0.0 **** 0.06
34663 H 95.22867999786439 12.913427658927674 104.31567348265389 H 0.0 **** 0.06
34664 H 96.9236085522316 12.367477663565637 104.34006861559715 H 0.0 **** 0.06
34665 H 95.7321639361204 11.625165254445221 105.43654908412151 H 0.0 **** 0.06
34666 C 17.497238274794142 57.764056545954645 27.050256692181158 C 0.0 **** -0.24
34667 H 18.166233323817323 58.53829250233764 27.424973682582745 H 0.0 **** 0.06
34668 H 16.768935513711284 58.21070183189988 26.372498846485094 H 0.0 **** 0.06
34669 H 16.976600973968488 57.29709317239741 27.88679755147993 H 0.0 **** 0.06
34670 H 18.075573794586717 57.01035492252504 26.516154242724255 H 0.0 **** 0.06
34671 C 105.17502521754764 20.25185335716114 21.59174891601336 C 0.0 **** -0.24
34672 H 105.73593280598904 20.986036882754718 22.170697811135 H 0.0 **** 0.06
34673 H 105.76374740653321 19.339042067671528 21.49599225341734 H 0.0 **** 0.06
34674 H 104.96524171626272 20.654632763840226 20.601078859162385 H 0.0 **** 0.06
34675 H 104.23743920610895 20.02838810313696 22.099875134598335 H 0.0 **** 0.06
34676 C 63.593353350959376 76.349973194355 92.0532954656428 C 0.0 **** -0.24
34677 H 63.10273256670334 77.07586828017645 91.40521437630707 H 0.0 **** 0.06
34678 H 64.49657297813798 76.79144448574682 92.47572417864154 H 0.0 **** 0.06
34679 H 63.8576478207753 75.46570288261866 91.47367922833257 H 0.0 **** 0.06
34680 H 62.9159296897638 76.06722042101211 92.85933928112684 H 0.0 **** 0.06
34681 C 114.32683355952071 25.4364894364997 18.21856088628347 C 0.0 **** -0.24
34682 H 113.42242458772239 25.028961335186324 17.764967557437487 H 0.0 **** 0.06
34683 H 114.52414185754992 26.426653494977586 17.807215346618904 H 0.0 **** 0.06
34684 H 115.1689092797572 24.778530090185967 18.003027700328886 H 0.0 **** 0.06
34685 H 114.1898166175697 25.51019595014253 19.29723935633467 H 0.0 **** 0.06
34686 C 19.43445709672639 110.79135659480102 20.435162732887818 C 0.0 **** -0.24
34687 H 19.158194694414277 111.83767624912005 20.300415242571432 H 0.0 **** 0.06
34688 H 20.276515636185763 110.7235419935086 21.123952359362136 H 0.0 **** 0.06
34689 H 19.71771454626787 110.36439984854914 19.47250922706769 H 0.0 **** 0.06
34690 H 18.58545938985037 110.24150913750758 20.841303373862388 H 0.0 **** 0.06
34691 C 82.72733184510018 54.63365210070154 77.63270823012441 C 0.0 **** -0.24
34692 H 82.15188796720524 54.83272026540115 78.53684581395358 H 0.0 **** 0.06
34693 H 82.32318491498319 55.22054418521454 76.80812805100433 H 0.0 **** 0.06
34694 H 82.6635681159604 53.57336274897107 77.38841900956196 H 0.0 **** 0.06
34695 H 83.76945359846741 54.9058812235923 77.79717420602633 H 0.0 **** 0.06
34696 C 16.9868783479576 9.709363457099926 59.05682891509255 C 0.0 **** -0.24
34697 H 17.61301801732958 8.833165323115082 59.23007612124978 H 0.0 **** 0.06
34698 H 16.684537383441068 9.73851497056532 58.00967576314484 H 0.0 **** 0.06
34699 H 17.550259482926265 10.610735501149549 59.297535525800456 H 0.0 **** 0.06
34700 H 16.10185763216299 9.653063442081006 59.689365163728624 H 0.0 **** 0.06
34701 C 59.27300153328474 101.31024667202958 10.600627726253919 C 0.0 **** -0.24
34702 H 59.98094148846985 101.18859750133313 9.780639880153444 H 0.0 **** 0.06
34703 H 58.74039589084782 102.25513585557628 10.482287748795443 H 0.0 **** 0.06
34704 H 59.81091230919952 101.31117764777154 11.548075678518046 H 0.0 **** 0.06
34705 H 58.55853501733833 100.48696190029735 10.588083633306098 H 0.0 **** 0.06
34706 C 19.195209082661847 51.26465389018 44.19024407033305 C 0.0 **** -0.24
34707 H 20.111261197224053 51.85502884584321 44.15603102322754 H 0.0 **** 0.06
34708 H 18.71234032880932 51.399246549361294 45.15884265282094 H 0.0 **** 0.06
34709 H 19.436334346730405 50.21219653852222 44.047004470163955 H 0.0 **** 0.06
34710 H 18.520892798164596 51.59372596254724 43.39980263927916 H 0.0 **** 0.06
34711 C 56.37905006337398 36.65250511668057 55.23641108852627 C 0.0 **** -0.24
34712 H 55.579738074831006 36.88301897186119 54.532375408373184 H 0.0 **** 0.06
34713 H 56.313618902855765 35.6046543351693 55.530331296810346 H 0.0 **** 0.06
34714 H 56.279526618097634 37.28475781284095 56.11808909309258 H 0.0 **** 0.06
34715 H 57.34366546747033 36.83762513844431 54.76347845932207 H 0.0 **** 0.06
34716 C 22.970187943807844 110.29107237324035 99.43690511465569 C 0.0 **** -0.24
34717 H 23.183895136513172 109.79353955002463 98.49143442545888 H 0.0 **** 0.06
34718 H 23.574527569172858 111.19476488112463 99.5168553025691 H 0.0 **** 0.06
34719 H 23.208217554672956 109.61966944079083 100.26215027922821 H 0.0 **** 0.06
34720 H 21.91311243308823 110.5549410885591 99.47751610995086 H 0.0 **** 0.06
34721 C 109.22976341276706 88.63575049333504 53.10701213026127 C 0.0 **** -0.24
34722 H 109.9582852195137 88.00768270767388 52.594290580586886 H 0.0 **** 0.06
34723 H 109.71753002160023 89.15933449779425 53.93003166495521 H 0.0 **** 0.06
34724 H 108.42534555826984 88.01213077848419 53.49851307113872 H 0.0 **** 0.06
34725 H 108.81845363382047 89.36251735728413 52.40691591465219 H 0.0 **** 0.06
34726 C 96.148246116356 57.26918138210084 3.760511092835884 C 0.0 **** -0.24
34727 H 95.65175426929528 56.548539539536876 3.1114011777995074 H 0.0 **** 0.06
34728 H 97.11294998480184 57.539817824634326 3.3317315501359985 H 0.0 **** 0.06
34729 H 96.29822235754017 56.827385320164694 4.745686675721913 H 0.0 **** 0.06
34730 H 95.52798230231929 58.16164522655731 3.852721360842736 H 0.0 **** 0.06
34731 C 51.38377488729023 68.11294144189905 88.9159518251948 C 0.0 **** -0.24
34732 H 52.1923136124248 68.62259939344622 88.39223392650497 H 0.0 **** 0.06
34733 H 50.522070501903826 68.77739686692594 88.9888501475134 H 0.0 **** 0.06
34734 H 51.71615567360693 67.83732093632186 89.91726394382192 H 0.0 **** 0.06
34735 H 51.104312829655726 67.21374111688166 88.36612154457207 H 0.0 **** 0.06
34736 C 74.34674844342786 55.40680941457009 81.52109232652057 C 0.0 **** -0.24
34737 H 74.20779503196678 56.03447145740006 80.64077200362578 H 0.0 **** 0.06
34738 H 74.53576286370469 54.380424801994536 81.20868289071262 H 0.0 **** 0.06
34739 H 73.44735188570397 55.4406486641152 82.13623240114288 H 0.0 **** 0.06
34740 H 75.19551825162205 55.77441993383985 82.09818928595445 H 0.0 **** 0.06
34741 C 100.56811457206175 30.39791429541077 6.682453169134163 C 0.0 **** -0.24
34742 H 100.4429405265148 29.36933563310248 7.019110092570827 H 0.0 **** 0.06
34743 H 101.58315071005774 30.53764112761951 6.3100345489605445 H 0.0 **** 0.06
34744 H 100.39054629262489 31.076953858353306 7.516869957219882 H 0.0 **** 0.06
34745 H 99.85620679726816 30.60838234432856 5.885354064726869 H 0.0 **** 0.06
34746 C 1.7087010570652694 88.59109353064652 75.20263104770265 C 0.0 **** -0.24
34747 H 1.5345531715121012 87.72175326645399 74.5681890872113 H 0.0 **** 0.06
34748 H 2.697642587505385 88.51698021880541 75.65670429095536 H 0.0 **** 0.06
34749 H 0.9504280623563943 88.62739138258696 75.98508239419249 H 0.0 **** 0.06
34750 H 1.652500034974878 89.4973715015256 74.59948657999644 H 0.0 **** 0.06
34751 C 33.75476810250876 82.67467726385179 94.26181375923812 C 0.0 **** -0.24
34752 H 34.344947418588134 81.76077614502307 94.33016344443274 H 0.0 **** 0.06
34753 H 33.80512400908921 83.0639475727963 93.24524825345154 H 0.0 **** 0.06
34754 H 34.15112652366574 83.41548550032118 94.95564923506277 H 0.0 **** 0.06
34755 H 32.717182378261555 82.45653992156676 94.51701874904225 H 0.0 **** 0.06
34756 C 6.045569100100652 70.15505496086891 39.790882214454484 C 0.0 **** -0.24
34757 H 5.024206986656852 70.43942265846967 40.044071871912536 H 0.0 **** 0.06
34758 H 6.7355914112424955 70.91342263534268 40.15931697351175 H 0.0 **** 0.06
34759 H 6.140766118351971 70.07100057067453 38.70801612078529 H 0.0 **** 0.06
34760 H 6.278937501837715 69.19530263990848 40.251729496992766 H 0.0 **** 0.06
34761 C 36.15454610244937 24.346403683701986 7.6459901610570284 C 0.0 **** -0.24
34762 H 36.18956113018382 24.319023497723613 6.5562278428819525 H 0.0 **** 0.06
34763 H 35.51493839127295 25.16929411048134 7.967164489420782 H 0.0 **** 0.06
34764 H 37.160662339189926 24.49296866985945 8.037746880471502 H 0.0 **** 0.06
34765 H 35.75215665257714 23.405265909736986 8.019760054232563 H 0.0 **** 0.06
34766 C 19.76929318026876 114.96904748299318 13.208129097033549 C 0.0 **** -0.24
34767 H 20.453646065867986 114.1235739194218 13.137835885579364 H 0.0 **** 0.06
34768 H 19.990080915298876 115.54043476351711 14.110611228125833 H 0.0 **** 0.06
34769 H 18.742961953430125 114.60350719682124 13.251638977400177 H 0.0 **** 0.06
34770 H 19.89037420067629 115.60809293876777 12.334340931887823 H 0.0 **** 0.06
34771 C 30.757463968974378 112.91253991637531 76.8462478031056 C 0.0 **** -0.24
34772 H 30.719434869216173 112.17201223722748 76.04742486327933 H 0.0 **** 0.06
34773 H 31.022641908479102 113.88423104497878 76.42858811760792 H 0.0 **** 0.06
34774 H 31.50614039346823 112.61486115405746 77.58068128806525 H 0.0 **** 0.06
34775 H 29.781444579464733 112.97688688543889 77.32778617457748 H 0.0 **** 0.06
34776 C 70.19924133604096 59.623485968101306 49.69317902624414 C 0.0 **** -0.24
34777 H 70.51501741021639 59.036059896348604 50.55590360035541 H 0.0 **** 0.06
34778 H 71.03985854101263 60.21446217707597 49.32832502697897 H 0.0 **** 0.06
34779 H 69.38618722485583 60.287982671166105 49.98372271824667 H 0.0 **** 0.06
34780 H 69.8565778771252 58.95336800941527 48.90426060647053 H 0.0 **** 0.06
34781 C 111.18339104054678 91.18147819407041 49.531601193632476 C 0.0 **** -0.24
34782 H 111.65749278946524 90.92098081156611 50.478462461527116 H 0.0 **** 0.06
34783 H 110.16911130205766 91.5362645682196 49.71891079562752 H 0.0 **** 0.06
34784 H 111.14766856505636 90.30118209443421 48.88942344290181 H 0.0 **** 0.06
34785 H 111.75902378619514 91.96570441443792 49.04093361206189 H 0.0 **** 0.06
34786 C 92.32997837085047 115.85400766325124 39.5323798376655 C 0.0 **** -0.24
34787 H 91.3727076825094 116.28245967970577 39.829960541252866 H 0.0 **** 0.06
34788 H 92.45631205754873 114.8821089815012 40.009171504283366 H 0.0 **** 0.06
34789 H 93.13660755027436 116.51849427494798 39.841960941718064 H 0.0 **** 0.06
34790 H 92.35247459511594 115.73444424298765 38.449160069474345 H 0.0 **** 0.06
34791 C 75.69869227420993 44.536995411203065 8.509490506982672 C 0.0 **** -0.24
34792 H 75.86741583918112 44.98756590950188 7.531771171073757 H 0.0 **** 0.06
34793 H 75.94483526132393 43.475375522501906 8.466882152074334 H 0.0 **** 0.06
34794 H 74.65108272264321 44.65536716906092 8.787720545668009 H 0.0 **** 0.06
34795 H 76.32997183013488 45.02784429829927 9.249713449856557 H 0.0 **** 0.06
34796 C 105.79033098570338 62.146380884139006 78.29130816756727 C 0.0 **** -0.24
34797 H 106.58840001191166 62.83355753289038 78.57131281808431 H 0.0 **** 0.06
34798 H 104.95141048417328 62.26583372520878 78.97774245442156 H 0.0 **** 0.06
34799 H 106.1594666530746 61.12171262933259 78.34233189734032 H 0.0 **** 0.06
34800 H 105.46258569651067 62.36472685097772 77.2751164545746 H 0.0 **** 0.06
34801 C 7.551334849011198 107.38253988571066 4.14381308025262 C 0.0 **** -0.24
34802 H 6.545641251834326 107.27496581763165 3.736075631183768 H 0.0 **** 0.06
34803 H 8.187371295896838 107.8809856772138 3.4117925699590845 H 0.0 **** 0.06
34804 H 7.9591660281711825 106.39766230811216 4.369064896335889 H 0.0 **** 0.06
34805 H 7.512428395132815 107.97788344426903 5.055735696418381 H 0.0 **** 0.06
34806 C 28.462104985255877 101.73072842236452 72.10535503555265 C 0.0 **** -0.24
34807 H 27.488249662975505 101.58313648413626 72.57050006259199 H 0.0 **** 0.06
34808 H 29.243421072848236 101.3723029702513 72.77612993363267 H 0.0 **** 0.06
34809 H 28.61258951883042 102.79188304865345 71.90700732409682 H 0.0 **** 0.06
34810 H 28.50535159314518 101.17632761859956 71.1675901055105 H 0.0 **** 0.06
34811 C 20.155634395707466 6.307607443075881 44.96927029725936 C 0.0 **** -0.24
34812 H 20.429936204691245 6.286874302155638 46.02422064509233 H 0.0 **** 0.06
34813 H 20.339097529306116 5.327362394300394 44.52740654832638 H 0.0 **** 0.06
34814 H 20.755974761564232 7.057771314368324 44.45300364573683 H 0.0 **** 0.06
34815 H 19.099457000357944 6.558584764080138 44.872957112861684 H 0.0 **** 0.06
34816 C 103.60523264412218 97.46844377646156 49.981850984670274 C 0.0 **** -0.24
34817 H 102.59282482179573 97.11689737419785 50.177283851631145 H 0.0 **** 0.06
34818 H 104.27886276408529 96.61472004973155 49.91248401855446 H 0.0 **** 0.06
34819 H 103.92624746748548 98.12049169109861 50.794572702240686 H 0.0 **** 0.06
34820 H 103.62242594141291 98.02291740677465 49.04273223409814 H 0.0 **** 0.06
34821 C 85.27965741550877 63.77823585235451 81.14946699373922 C 0.0 **** -0.24
34822 H 84.2984560376258 63.825140194168284 81.6211134220253 H 0.0 **** 0.06
34823 H 85.23068808044039 63.131283241030005 80.27328441704464 H 0.0 **** 0.06
34824 H 86.00471208891052 63.37828598067483 81.85726095492652 H 0.0 **** 0.06
34825 H 85.58435483225334 64.77963603080481 80.84451822537864 H 0.0 **** 0.06
34826 C 108.02748897381639 99.61804448342832 25.88845536492346 C 0.0 **** -0.24
34827 H 108.49028521505062 99.81841070543229 24.92110554016149 H 0.0 **** 0.06
34828 H 107.64739934545076 100.54929591368176 26.308272221601158 H 0.0 **** 0.06
34829 H 108.76909770476459 99.19039587596978 26.563301068135843 H 0.0 **** 0.06
34830 H 107.20585873492382 98.9142056461452 25.758739715573427 H 0.0 **** 0.06
34831 C 15.824692331694052 54.67370883784261 46.02081288127641 C 0.0 **** -0.24
34832 H 16.746736803314207 54.196644438617675 45.6878952740102 H 0.0 **** 0.06
34833 H 15.066540233841522 54.58114688777768 45.24230963047387 H 0.0 **** 0.06
34834 H 16.012814557238656 55.727789477600346 46.221517915726395 H 0.0 **** 0.06
34835 H 15.47249495686114 54.18759831050797 46.9310557956685 H 0.0 **** 0.06
34836 C 46.376198754199635 93.59019222311262 10.033402841759468 C 0.0 **** -0.24
34837 H 45.87051266788609 94.37681016804922 9.474403485454857 H 0.0 **** 0.06
34838 H 47.26780186197874 93.27472056864833 9.490941669000037 H 0.0 **** 0.06
34839 H 45.70384857596042 92.74029441439147 10.15288731038575 H 0.0 **** 0.06
34840 H 46.66297139493639 93.96727507808615 11.015061909928278 H 0.0 **** 0.06
34841 C 99.84656806148507 55.3892881324761 66.82861352706843 C 0.0 **** -0.24
34842 H 99.78477392708913 54.36384030818694 66.46557531273135 H 0.0 **** 0.06
34843 H 98.87052917040751 55.86773747691322 66.73281680395169 H 0.0 **** 0.06
34844 H 100.57966612816793 55.93987412696256 66.23894594966646 H 0.0 **** 0.06
34845 H 100.14860841015164 55.38642250509396 67.8760122000725 H 0.0 **** 0.06
34846 C 19.022940505305552 38.80354297309364 16.243279109130555 C 0.0 **** -0.24
34847 H 18.42421967059666 38.0466360223146 15.737811292016147 H 0.0 **** 0.06
34848 H 19.18187021890061 38.5075253122709 17.281051986277248 H 0.0 **** 0.06
34849 H 18.499110284650403 39.759667762816605 16.214228889629283 H 0.0 **** 0.06
34850 H 19.985372944978042 38.90047889888916 15.741913255587065 H 0.0 **** 0.06
34851 C 22.57585652322672 7.239051206336583 109.76709052958036 C 0.0 **** -0.24
34852 H 23.178668851885476 8.103855326820153 109.49079421101472 H 0.0 **** 0.06
34853 H 22.738409519751258 7.003862206851679 110.81967083562735 H 0.0 **** 0.06
34854 H 22.863642228533507 6.385015979476677 109.15515369345263 H 0.0 **** 0.06
34855 H 21.521225200094563 7.464040016835 109.60344014168389 H 0.0 **** 0.06
34856 C 37.38146817391015 99.25797040392204 28.104743553405484 C 0.0 **** -0.24
34857 H 36.628603500876295 99.19261884222655 27.319671918180845 H 0.0 **** 0.06
34858 H 38.23876077408477 98.6395391919537 27.837713924776097 H 0.0 **** 0.06
34859 H 36.9572130673821 98.90428859237451 29.04404611029915 H 0.0 **** 0.06
34860 H 37.70112500227032 100.2932158648974 28.217326037186695 H 0.0 **** 0.06
34861 C 92.11185977326322 69.22790295276769 66.53568338708965 C 0.0 **** -0.24
34862 H 92.85273028917541 70.02245345044457 66.61636089423496 H 0.0 **** 0.06
34863 H 92.43887294166912 68.36624791377943 67.11932252622023 H 0.0 **** 0.06
34864 H 92.0017247029762 68.93843795740042 65.49110319484532 H 0.0 **** 0.06
34865 H 91.1546716738476 69.5836455554986 66.91694799116624 H 0.0 **** 0.06
34866 C 54.5561013056641 4.2151611069882335 32.7995702372271 C 0.0 **** -0.24
34867 H 53.698706723080875 4.887798856810065 32.81995490255889 H 0.0 **** 0.06
34868 H 55.13473952379033 4.390122221045033 31.892430232304946 H 0.0 **** 0.06
34869 H 54.207943631005065 3.181928624079177 32.81488284638061 H 0.0 **** 0.06
34870 H 55.18296130997959 4.399884290278891 33.672093847272606 H 0.0 **** 0.06
34871 C 16.070927342238914 36.00984948968022 56.30026513297247 C 0.0 **** -0.24
34872 H 15.635878362208643 36.98187469450582 56.530710114010446 H 0.0 **** 0.06
34873 H 15.37596403781022 35.222878534201726 56.592565071480436 H 0.0 **** 0.06
34874 H 17.00632528771114 35.89112480988976 56.84780484064328 H 0.0 **** 0.06
34875 H 16.266926475091775 35.943692118656884 55.229750707285206 H 0.0 **** 0.06
34876 C 103.70826817384696 94.7461931543694 99.49578657206764 C 0.0 **** -0.24
34877 H 102.92747016126395 94.06553696672577 99.15531011896836 H 0.0 **** 0.06
34878 H 104.54439697924668 94.71813939404711 98.79588425332737 H 0.0 **** 0.06
34879 H 104.0505006468082 94.44215056094095 100.48385664131334 H 0.0 **** 0.06
34880 H 103.30957959566734 95.7597167945695 99.54461104236438 H 0.0 **** 0.06
34881 C 19.15788567031379 10.926700616960147 42.37897487179765 C 0.0 **** -0.24
34882 H 18.66065107479662 10.090611443850463 41.88875949031528 H 0.0 **** 0.06
34883 H 18.749439985943923 11.05618559179129 43.38109128366594 H 0.0 **** 0.06
34884 H 18.995492119274786 11.836396381589566 41.79959365902941 H 0.0 **** 0.06
34885 H 20.227691149482496 10.724268741549736 42.445203460580956 H 0.0 **** 0.06
34886 C 92.78794518369699 3.721198537261717 98.22033779261062 C 0.0 **** -0.24
34887 H 92.84182257970592 4.633296380188041 98.81429256960328 H 0.0 **** 0.06
34888 H 91.8677740487126 3.1863861600319687 98.45905823576112 H 0.0 **** 0.06
34889 H 93.64570809606842 3.0878292733272783 98.44813321774308 H 0.0 **** 0.06
34890 H 92.79642091334979 3.9758376596934895 97.16082111102827 H 0.0 **** 0.06
34891 C 72.46956576754484 38.97887984230103 29.818054945559652 C 0.0 **** -0.24
34892 H 71.87834296310609 38.34354449308507 29.1595854562604 H 0.0 **** 0.06
34893 H 72.50329567008461 38.53693172333136 30.81417830283823 H 0.0 **** 0.06
34894 H 72.01461780791449 39.967408031751695 29.87383917191562 H 0.0 **** 0.06
34895 H 73.48201147604539 39.06671399169789 29.42500615073868 H 0.0 **** 0.06
34896 C 79.44082336213384 99.40475333914954 57.1334862870565 C 0.0 **** -0.24
34897 H 79.66422027570738 99.02334993772082 58.1293014090067 H 0.0 **** 0.06
34898 H 80.36866974012426 99.53459140513634 56.576124871992505 H 0.0 **** 0.06
34899 H 78.93092046556572 100.36454894865616 57.21834496740907 H 0.0 **** 0.06
34900 H 78.79769329398367 98.69760062142147 56.60937626164652 H 0.0 **** 0.06
34901 C 95.35285742010086 49.5205798033123 87.82716154503 C 0.0 **** -0.24
34902 H 94.82699496703282 49.565705881135784 88.7809759318961 H 0.0 **** 0.06
34903 H 96.427742454417 49.48965775356635 88.00559514039423 H 0.0 **** 0.06
34904 H 95.10755792630474 50.40286788190116 87.23578393987714 H 0.0 **** 0.06
34905 H 95.04702672773118 48.624735934181615 87.28735800007648 H 0.0 **** 0.06
34906 C 6.831910343546099 37.693660958543035 8.200853525599683 C 0.0 **** -0.24
34907 H 7.240682202598862 37.51609176076818 7.20594633293274 H 0.0 **** 0.06
34908 H 6.747682284615877 38.767075336638015 8.372086674589667 H 0.0 **** 0.06
34909 H 7.493111987133432 37.2568787945921 8.949058219093445 H 0.0 **** 0.06
34910 H 5.845560936343617 37.23464035217529 8.274416660438419 H 0.0 **** 0.06
34911 C 26.98571142362937 111.10648148220227 20.072566979216504 C 0.0 **** -0.24
34912 H 26.053969612529954 111.6483106036769 20.236624850307777 H 0.0 **** 0.06
34913 H 27.535756768423 111.03678357064362 21.01013285916909 H 0.0 **** 0.06
34914 H 27.589095681998458 111.6373971487871 19.33593235289375 H 0.0 **** 0.06
34915 H 26.762042860961003 110.105016461165 19.704825568686857 H 0.0 **** 0.06
34916 C 107.33900047797925 23.87807976743349 30.003708367934223 C 0.0 **** -0.24
34917 H 107.73351183196925 22.908541311489046 29.699594031400522 H 0.0 **** 0.06
34918 H 108.14166805026647 24.61622385698149 29.992768032892116 H 0.0 **** 0.06
34919 H 106.92715521792678 23.804075974499227 31.010462809456982 H 0.0 **** 0.06
34920 H 106.55429146456285 24.18419217122559 29.31169281233113 H 0.0 **** 0.06
34921 C 115.89307516789344 16.441935787648788 3.2995598237837953 C 0.0 **** -0.24
34922 H 115.28813591401412 15.539556064197143 3.214660761576596 H 0.0 **** 0.06
34923 H 115.42849912138645 17.24646417675129 2.7284313010476353 H 0.0 **** 0.06
34924 H 116.8923197906463 16.24855587105651 2.909006416677812 H 0.0 **** 0.06
34925 H 115.96335706834617 16.73518303396864 4.347532210045728 H 0.0 **** 0.06
34926 C 70.59090342512752 115.87394438964435 16.973034445455795 C 0.0 **** -0.24
34927 H 70.88483754402972 116.85837621557232 17.337626390824795 H 0.0 **** 0.06
34928 H 69.54099320577268 115.6983343211399 17.212066479821374 H 0.0 **** 0.06
34929 H 71.20528364528332 115.11137409453437 17.450528927370556 H 0.0 **** 0.06
34930 H 70.73069260762725 115.8305803060955 15.893465074833472 H 0.0 **** 0.06
34931 C 22.499265636776286 81.28207712199838 13.775833787579547 C 0.0 **** -0.24
34932 H 22.035695906437226 81.07760748940683 12.810869117299205 H 0.0 **** 0.06
34933 H 23.415911270473345 80.69921185347454 13.869628526102588 H 0.0 **** 0.06
34934 H 21.81074953947619 81.00796906781926 14.575203487416132 H 0.0 **** 0.06
34935 H 22.734110752465668 82.3447248799963 13.847193059135236 H 0.0 **** 0.06
34936 C 5.412373300505493 44.67911015044689 62.63555466778712 C 0.0 **** -0.24
34937 H 5.339847238455121 43.593315039355616 62.69284748196904 H 0.0 **** 0.06
34938 H 5.55746853760445 45.0864649746801 63.63668504834129 H 0.0 **** 0.06
34939 H 4.494128676441591 45.08276161523082 62.20774522676436 H 0.0 **** 0.06
34940 H 6.258049028954673 44.953345137169094 62.005773574380584 H 0.0 **** 0.06
34941 C 92.39734441529869 35.10495073715518 110.17391818174741 C 0.0 **** -0.24
34942 H 92.5921932042823 36.15681531626882 110.38337323546176 H 0.0 **** 0.06
34943 H 92.83422116091766 34.49114077882845 110.96241464292689 H 0.0 **** 0.06
34944 H 92.84234487570166 34.83700401198402 109.21548992983048 H 0.0 **** 0.06
34945 H 91.32216809075749 34.93627146859325 110.13514179928546 H 0.0 **** 0.06
34946 C 76.2412860089174 98.40487228558388 55.06896945928227 C 0.0 **** -0.24
34947 H 77.29973673168233 98.32039004196066 54.823862666821356 H 0.0 **** 0.06
34948 H 76.09027456430756 98.15607077897349 56.12003652877536 H 0.0 **** 0.06
34949 H 75.66827367617661 97.71874965283276 54.446646346817914 H 0.0 **** 0.06
34950 H 75.9071038498584 99.42634263334857 54.88662862422524 H 0.0 **** 0.06
34951 C 38.50147336344005 74.65042420442457 8.735225864731348 C 0.0 **** -0.24
34952 H 39.23566174805242 74.28338929118969 9.451885686143413 H 0.0 **** 0.06
34953 H 38.24752945713947 75.6834224527018 8.97209638135746 H 0.0 **** 0.06
34954 H 37.60340980182376 74.03406973989898 8.787700886190578 H 0.0 **** 0.06
34955 H 38.91881316267498 74.60001413812823 7.729578875106654 H 0.0 **** 0.06
34956 C 41.78400532176022 15.492853152201963 71.75104245495282 C 0.0 **** -0.24
34957 H 42.793422614562644 15.350718573704121 72.135655227769 H 0.0 **** 0.06
34958 H 41.68939296807355 14.992019085249428 70.78682340631177 H 0.0 **** 0.06
34959 H 41.58891191705334 16.557823426256217 71.62776068732339 H 0.0 **** 0.06
34960 H 41.06421224910241 15.070532678556727 72.45222995145394 H 0.0 **** 0.06
34961 C 42.084625191109666 27.807039618015324 101.95900904352536 C 0.0 **** -0.24
34962 H 41.97903816577619 28.846573624495136 101.6478547222074 H 0.0 **** 0.06
34963 H 43.13775414097043 27.52407086478854 101.9264241723381 H 0.0 **** 0.06
34964 H 41.51439985529416 27.166907624879343 101.28511164292615 H 0.0 **** 0.06
34965 H 41.70898319226009 27.69167754481549 102.97521432654699 H 0.0 **** 0.06
34966 C 105.22557898006508 78.25937788862075 98.36854882517105 C 0.0 **** -0.24
34967 H 104.41568435005438 77.64158334119514 97.97922351070771 H 0.0 **** 0.06
34968 H 105.296891157634 78.12626769046716 99.44863765306074 H 0.0 **** 0.06
34969 H 105.02324443603503 79.30703410552695 98.14443774928564 H 0.0 **** 0.06
34970 H 106.16509938440936 77.96263342742935 97.90211908700515 H 0.0 **** 0.06
34971 C 41.433740552960046 21.642003157437756 79.57220122496085 C 0.0 **** -0.24
34972 H 40.88901589104768 22.556522627489812 79.80853527344397 H 0.0 **** 0.06
34973 H 40.774068421426406 20.952591289345236 79.04452181985255 H 0.0 **** 0.06
34974 H 41.78095136614409 21.177625960811014 80.49477153723706 H 0.0 **** 0.06
34975 H 42.289752049853945 21.881792573387514 78.94156828989773 H 0.0 **** 0.06
34976 C 55.91151010126583 24.89959583613725 58.97958016213167 C 0.0 **** -0.24
34977 H 55.27837933174243 24.035708188591407 58.77994035334356 H 0.0 **** 0.06
34978 H 56.94007419933462 24.569642839722263 59.12739255078233 H 0.0 **** 0.06
34979 H 55.560125778225256 25.40766946253902 59.87827469739473 H 0.0 **** 0.06
34980 H 55.86722334129695 25.585988965893634 58.13395866735554 H 0.0 **** 0.06
34981 C 88.46249184998426 75.2508266022798 20.998504171836373 C 0.0 **** -0.24
34982 H 89.15093914376614 74.90464717390167 20.227791083912365 H 0.0 **** 0.06
34983 H 88.73568392642775 76.2612937069584 21.301838723738967 H 0.0 **** 0.06
34984 H 88.51692021106862 74.5849073546781 21.859578297273316 H 0.0 **** 0.06
34985 H 87.44660718259988 75.25147740173956 20.60380624120205 H 0.0 **** 0.06
34986 C 87.83485288622944 64.37446739915805 45.46526133369507 C 0.0 **** -0.24
34987 H 88.74596548073441 63.791318933999264 45.60177617868915 H 0.0 **** 0.06
34988 H 87.00213031575436 63.703619312254716 45.25629850512326 H 0.0 **** 0.06
34989 H 87.96641826162198 65.06314446984379 44.6307704767246 H 0.0 **** 0.06
34990 H 87.62756426842137 64.94073162331671 46.373931174641314 H 0.0 **** 0.06
34991 C 103.59262758883818 23.759705919040478 91.72520919583768 C 0.0 **** -0.24
34992 H 103.41446913626768 23.985142147214066 92.77681208932304 H 0.0 **** 0.06
34993 H 103.73988653336261 24.6896239760084 91.17491851800877 H 0.0 **** 0.06
34994 H 102.73474291687285 23.226557497958563 91.31695053297103 H 0.0 **** 0.06
34995 H 104.48386391130765 23.13751371489221 91.63415248540346 H 0.0 **** 0.06
34996 C 23.487867770906178 24.8828684049179 42.500435823596206 C 0.0 **** -0.24
34997 H 22.62641567359384 24.23737934839803 42.32997556549831 H 0.0 **** 0.06
34998 H 23.775532926045827 24.83434675587555 43.55116129707717 H 0.0 **** 0.06
34999 H 23.23116879674464 25.909171569235838 42.23970041557516 H 0.0 **** 0.06
35000 H 24.32027828099808 24.54827823635815 41.88103632465102 H 0.0 **** 0.06
35001 C 45.336177797904554 40.62733806578009 114.2519020249016 C 0.0 **** -0.24
35002 H 45.73652925229493 40.007816072397105 113.45061390201677 H 0.0 **** 0.06
35003 H 44.49423395182151 40.116854511917694 114.71938533987785 H 0.0 **** 0.06
35004 H 45.00092117647222 41.58024883455923 113.84085738976906 H 0.0 **** 0.06
35005 H 46.1124530314857 40.80605922544417 114.99691219075059 H 0.0 **** 0.06
35006 C 87.5539446934979 11.795914173404398 80.41929967827576 C 0.0 **** -0.24
35007 H 88.4757403713594 11.591368589070413 79.87547678421168 H 0.0 **** 0.06
35008 H 87.69017692569423 11.54718554583954 81.47167194704222 H 0.0 **** 0.06
35009 H 86.74611380073907 11.193612942158737 80.00433100641038 H 0.0 **** 0.06
35010 H 87.30439025147075 12.85325643599495 80.32503657268899 H 0.0 **** 0.06
35011 C 67.35578972592918 105.63944708232468 61.13881812991502 C 0.0 **** -0.24
35012 H 68.2267631184651 106.16414369535505 60.74599835708375 H 0.0 **** 0.06
35013 H 66.74091740592303 106.33572320424662 61.710003042310575 H 0.0 **** 0.06
35014 H 67.68327113353524 104.82686059544592 61.78650371921526 H 0.0 **** 0.06
35015 H 66.77343964054342 105.23340837723401 60.31178215995294 H 0.0 **** 0.06
35016 C 61.16396906447419 56.9154452607188 54.21645144620635 C 0.0 **** -0.24
35017 H 61.61029638243373 57.114457485075036 55.19097832499031 H 0.0 **** 0.06
35018 H 61.18185102868101 57.82601614605633 53.61667689354891 H 0.0 **** 0.06
35019 H 60.13307648659904 56.587961351331586 54.35033320423088 H 0.0 **** 0.06
35020 H 61.73035282065416 56.13471404831279 53.710470548240636 H 0.0 **** 0.06
35021 C 67.59193163743981 17.04448738113734 62.541868792754144 C 0.0 **** -0.24
35022 H 67.50866585085234 16.040597699307007 62.124980446108 H 0.0 **** 0.06
35023 H 66.59543310954166 17.434197914247964 62.75158045582123 H 0.0 **** 0.06
35024 H 68.0940810849678 17.694076028518683 61.82581921049473 H 0.0 **** 0.06
35025 H 68.16996910252692 17.006667046412563 63.46519314768159 H 0.0 **** 0.06
35026 C 39.91894074400733 38.769683158796425 72.67861658621737 C 0.0 **** -0.24
35027 H 39.8237993911888 39.364327812203385 73.58786984401371 H 0.0 **** 0.06
35028 H 40.822675629941756 38.16332898782957 72.73414490642173 H 0.0 **** 0.06
35029 H 39.97833900507152 39.4335837747208 71.81529251079334 H 0.0 **** 0.06
35030 H 39.049453829952455 38.119695311439756 72.57811341924851 H 0.0 **** 0.06
35031 C 100.00221200030299 108.9737196637411 5.606881113807654 C 0.0 **** -0.24
35032 H 99.10416974916177 109.07879893638648 4.998568706222613 H 0.0 **** 0.06
35033 H 100.37832966780215 107.95414974166655 5.526911198298235 H 0.0 **** 0.06
35034 H 99.76373471793698 109.19413458123445 6.6473057361089065 H 0.0 **** 0.06
35035 H 100.76366191665443 109.6706910293513 5.252613328263749 H 0.0 **** 0.06
35036 C 73.59863893550921 109.56687538410372 67.53606951011824 C 0.0 **** -0.24
35037 H 73.34293116877102 109.25692574086986 66.52284578882075 H 0.0 **** 0.06
35038 H 72.71082726325214 109.95904580445983 68.03145250421716 H 0.0 **** 0.06
35039 H 74.36609723477103 110.34033097138416 67.49658778888687 H 0.0 **** 0.06
35040 H 73.97666548776982 108.70924572843734 68.09282427753357 H 0.0 **** 0.06
35041 C 100.68152992329608 43.39217268695921 76.30216016875937 C 0.0 **** -0.24
35042 H 101.10170249572698 42.8099111843116 75.4826926287877 H 0.0 **** 0.06
35043 H 100.55555744790072 42.75213857353074 77.1755328463868 H 0.0 **** 0.06
35044 H 99.7129026903375 43.79286680625029 76.00311490915509 H 0.0 **** 0.06
35045 H 101.35515506301309 44.213846266550064 76.54670727888926 H 0.0 **** 0.06
35046 C 112.64793983079441 78.2986623842017 7.44490553148006 C 0.0 **** -0.24
35047 H 112.79499663478946 79.34696951939337 7.183281654442567 H 0.0 **** 0.06
35048 H 111.65329913057917 78.16701243519316 7.8707161868554465 H 0.0 **** 0.06
35049 H 113.40028018813302 77.99903691124317 8.175246670000178 H 0.0 **** 0.06
35050 H 112.74533644868862 77.68371331628846 6.550212233149352 H 0.0 **** 0.06
35051 C 114.26311842070679 1.3011992764030538 54.218344771662494 C 0.0 **** -0.24
35052 H 115.31855110357084 1.5216102326875358 54.05519614243005 H 0.0 **** 0.06
35053 H 113.65659865725313 1.9192108931619316 53.556440728819226 H 0.0 **** 0.06
35054 H 114.00362894056822 1.5155157713912217 55.25513270036078 H 0.0 **** 0.06
35055 H 114.07508345463329 0.2487046697058446 54.00672129409431 H 0.0 **** 0.06
35056 C 107.96005589322738 16.72409660186196 21.06103471930757 C 0.0 **** -0.24
35057 H 107.17371318093512 16.993074863176048 21.76593496582025 H 0.0 **** 0.06
35058 H 107.94081585085485 15.648033823364926 20.88795589532303 H 0.0 **** 0.06
35059 H 108.92887086981045 17.010264684387096 21.47034379521142 H 0.0 **** 0.06
35060 H 107.79576863676385 17.247105502079535 20.118030987909094 H 0.0 **** 0.06
35061 C 115.85238681849603 25.284691998343646 77.91484169164778 C 0.0 **** -0.24
35062 H 115.65144249710472 26.03842968970531 77.15276132017527 H 0.0 **** 0.06
35063 H 116.34287093820215 25.752377582198108 78.76839313298018 H 0.0 **** 0.06
35064 H 116.50144051706371 24.513750862347706 77.49968917997921 H 0.0 **** 0.06
35065 H 114.91356861510268 24.834526276805946 78.2368350702406 H 0.0 **** 0.06
35066 C 85.36778746763599 32.132517730276646 55.372228317989666 C 0.0 **** -0.24
35067 H 86.22546450182148 32.75458852415608 55.62911664654315 H 0.0 **** 0.06
35068 H 85.11597637590756 31.493978487819675 56.219350151756615 H 0.0 **** 0.06
35069 H 85.61541414050134 31.511701138331773 54.51108642766533 H 0.0 **** 0.06
35070 H 84.51722189943507 32.76775445263189 55.128872678534854 H 0.0 **** 0.06
35071 C 84.92189714225259 106.71950989078596 7.353905856172835 C 0.0 **** -0.24
35072 H 85.11988503661284 105.66888355473182 7.568155001213205 H 0.0 **** 0.06
35073 H 85.33623531429647 107.33642761719716 8.15136805480234 H 0.0 **** 0.06
35074 H 83.84543650127395 106.87980157545576 7.292297194946315 H 0.0 **** 0.06
35075 H 85.38522631987767 106.99072841117419 6.405679037474819 H 0.0 **** 0.06
35076 C 91.10121985718936 21.298978310021027 76.66821173835663 C 0.0 **** -0.24
35077 H 90.4823656605342 21.118492765719026 75.78917532574563 H 0.0 **** 0.06
35078 H 90.88410032269856 20.544619598448634 77.4254803065289 H 0.0 **** 0.06
35079 H 90.88424886223454 22.28939956117668 77.06794398541568 H 0.0 **** 0.06
35080 H 92.15370733601918 21.24132951074884 76.38902304233612 H 0.0 **** 0.06
35081 C 44.18084657823935 80.70202240374344 68.54402002310178 C 0.0 **** -0.24
35082 H 43.1043096480513 80.86226360913166 68.48903346616055 H 0.0 **** 0.06
35083 H 44.62365540162 80.86977224915427 67.56194165389377 H 0.0 **** 0.06
35084 H 44.3799746146885 79.67827570738625 68.86223273525013 H 0.0 **** 0.06
35085 H 44.615672169435186 81.39717167410228 69.26210967147796 H 0.0 **** 0.06
35086 C 44.09811569231701 79.98364833997856 45.18953476300453 C 0.0 **** -0.24
35087 H 43.15240654041389 80.37837834610245 45.562710394999556 H 0.0 **** 0.06
35088 H 44.213155500624794 78.9494948981725 45.51444100339813 H 0.0 **** 0.06
35089 H 44.9206502614947 80.58184715327779 45.5813849994735 H 0.0 **** 0.06
35090 H 44.10419591107063 80.0251284044733 44.10044754151323 H 0.0 **** 0.06
35091 C 43.17906514749029 31.517572357287037 4.392931122261018 C 0.0 **** -0.24
35092 H 42.56508310404158 30.64849639653181 4.159514109138414 H 0.0 **** 0.06
35093 H 42.59273750866333 32.42557352695843 4.251781082356416 H 0.0 **** 0.06
35094 H 44.04512161730753 31.537219594150315 3.7308300937462064 H 0.0 **** 0.06
35095 H 43.51432078636907 31.458736575466958 5.428636962083871 H 0.0 **** 0.06
35096 C 54.806595594488954 24.109003280759794 36.01587190286709 C 0.0 **** -0.24
35097 H 55.875351718617765 23.893641248989496 35.98106967801039 H 0.0 **** 0.06
35098 H 54.440156956623525 23.960426696794116 37.031918315008454 H 0.0 **** 0.06
35099 H 54.27958402967522 23.43772333746506 35.33763476347162 H 0.0 **** 0.06
35100 H 54.634408424911385 25.141528589032674 35.71272079329151 H 0.0 **** 0.06
35101 C 36.17866039395358 17.84616619222703 23.261693936172804 C 0.0 **** -0.24
35102 H 35.90248967780681 16.872023017938204 22.859554284254557 H 0.0 **** 0.06
35103 H 36.328559496266394 18.548871231059593 22.441937599894118 H 0.0 **** 0.06
35104 H 37.101335249802474 17.75448007029331 23.83577353674741 H 0.0 **** 0.06
35105 H 35.38171043869818 18.209181156735383 23.91115024156298 H 0.0 **** 0.06
35106 C 4.49727461685471 7.662399165675026 89.73724851271294 C 0.0 **** -0.24
35107 H 4.304270102047155 8.401379538543708 90.51542771159387 H 0.0 **** 0.06
35108 H 5.448113389690889 7.88570361206439 89.25365954445522 H 0.0 **** 0.06
35109 H 3.6968224546468207 7.697027085609363 88.99746553115597 H 0.0 **** 0.06
35110 H 4.538851140412305 6.668839688363974 90.18162156835984 H 0.0 **** 0.06
35111 C 115.63382418823278 57.252960347187184 0.03907887247220998 C 0.0 **** -0.24
35112 H 115.84459564422957 58.25475648649871 -0.3346394961132546 H 0.0 **** 0.06
35113 H 115.21974333203187 57.31963500889114 1.044909901934668 H 0.0 **** 0.06
35114 H 116.55761601851287 56.67352211588502 0.06376972497185385 H 0.0 **** 0.06
35115 H 114.91623660087154 56.76356502350697 -0.6184237882240389 H 0.0 **** 0.06
35116 C 38.661991492971396 53.07218180617204 102.99100844957894 C 0.0 **** -0.24
35117 H 38.92216052295413 52.61565231035458 102.03619410587754 H 0.0 **** 0.06
35118 H 39.571155413816086 53.25319094584388 103.56578693049663 H 0.0 **** 0.06
35119 H 38.00710948550142 52.40240246519055 103.54766067607382 H 0.0 **** 0.06
35120 H 38.14964583881465 54.01738625612969 102.8136444431261 H 0.0 **** 0.06
35121 C 58.37271730752883 107.498251994582 40.77708550684562 C 0.0 **** -0.24
35122 H 59.012833648461466 107.97032152638423 40.03155549468525 H 0.0 **** 0.06
35123 H 57.8055438840169 106.6922221455469 40.31025169000061 H 0.0 **** 0.06
35124 H 57.684253312737965 108.23771874567427 41.1853094262764 H 0.0 **** 0.06
35125 H 58.98823837628764 107.09255197738048 41.57982447416077 H 0.0 **** 0.06
35126 C 45.28371681864914 59.583955344344474 96.3394955838055 C 0.0 **** -0.24
35127 H 44.62071203352451 58.721976755588514 96.27090932308421 H 0.0 **** 0.06
35128 H 44.70640906678125 60.49843977935899 96.20633971254976 H 0.0 **** 0.06
35129 H 46.045643725870804 59.518358014502155 95.56250011511045 H 0.0 **** 0.06
35130 H 45.76315649164346 59.59507535412962 97.31828386242093 H 0.0 **** 0.06
35131 C 45.21249657464344 63.25494393806463 76.6667498005461 C 0.0 **** -0.24
35132 H 45.360170763629455 62.176551431636994 76.70383587638663 H 0.0 **** 0.06
35133 H 45.50375117894217 63.69539350522007 77.62107499216621 H 0.0 **** 0.06
35134 H 44.16287750200458 63.471693160955056 76.47082361034033 H 0.0 **** 0.06
35135 H 45.825677575177 63.6776502261655 75.86968072193862 H 0.0 **** 0.06
35136 C 58.30549494778711 91.269083977695 42.3364740814842 C 0.0 **** -0.24
35137 H 58.22054486105068 90.32080712283016 42.86801062126426 H 0.0 **** 0.06
35138 H 58.49935324500535 92.06978990835404 43.05093232907936 H 0.0 **** 0.06
35139 H 57.37644923975918 91.47249009704137 41.80529003153791 H 0.0 **** 0.06
35140 H 59.12816957667201 91.21120767879734 41.62229380857201 H 0.0 **** 0.06
35141 C 112.16629864948115 93.62410726913734 114.89646082394887 C 0.0 **** -0.24
35142 H 113.07979561002827 93.04774686121777 114.75462478304813 H 0.0 **** 0.06
35143 H 111.8013350986862 93.4812387926143 115.91376303200175 H 0.0 **** 0.06
35144 H 111.40918963041418 93.2873236621877 114.18761786113328 H 0.0 **** 0.06
35145 H 112.37412218389818 94.6811435194833 114.73101510487344 H 0.0 **** 0.06
35146 C 104.48790837534045 45.23514976170554 7.9141058849183565 C 0.0 **** -0.24
35147 H 104.34134317173334 44.85380180553415 6.9039599122698405 H 0.0 **** 0.06
35148 H 103.69526106325915 44.859285645637044 8.562352793778615 H 0.0 **** 0.06
35149 H 104.45931463343797 46.3247129482545 7.899442358454479 H 0.0 **** 0.06
35150 H 105.45476733429312 44.901564203014345 8.291429358173204 H 0.0 **** 0.06
35151 C 84.12248180899611 64.99133523729698 40.55366340129795 C 0.0 **** -0.24
35152 H 84.36349245225286 63.93268253518292 40.458837959506305 H 0.0 **** 0.06
35153 H 84.63392201010407 65.55132644813756 39.769831530862156 H 0.0 **** 0.06
35154 H 84.4483072356514 65.35182056067437 41.52940500731481 H 0.0 **** 0.06
35155 H 83.04621614465324 65.12884764187179 40.45534735257561 H 0.0 **** 0.06
35156 C 10.378004069823021 37.806622307473894 6.367014487525353 C 0.0 **** -0.24
35157 H 11.402884607023907 37.45025267599727 6.465244133201807 H 0.0 **** 0.06
35158 H 10.052416298026287 37.690549984116174 5.33266810269285 H 0.0 **** 0.06
35159 H 10.330067621282964 38.85889591864465 6.647183894422014 H 0.0 **** 0.06
35160 H 9.7269419445025 37.22604562652688 7.020070643307065 H 0.0 **** 0.06
35161 C 74.41213583493634 27.135055277925034 13.491179642884333 C 0.0 **** -0.24
35162 H 73.50612308763026 27.390511953098155 14.040179924990696 H 0.0 **** 0.06
35163 H 74.3109443361396 26.13462189491281 13.068391302701968 H 0.0 **** 0.06
35164 H 75.26621379444911 27.159442027040882 14.168820952457395 H 0.0 **** 0.06
35165 H 74.56526212152643 27.85564523664806 12.687326391387103 H 0.0 **** 0.06
35166 C 80.39740092582429 74.61336653980271 48.808369477402124 C 0.0 **** -0.24
35167 H 80.00670305098777 74.25548382732859 49.76094687075198 H 0.0 **** 0.06
35168 H 79.56874575192666 74.82733170762492 48.13355094742721 H 0.0 **** 0.06
35169 H 81.0372761053348 73.84936792210203 48.36774222616717 H 0.0 **** 0.06
35170 H 80.97655680742844 75.52190814552569 48.97194864049038 H 0.0 **** 0.06
35171 C 86.33554660261245 38.027799444215475 65.79071155409406 C 0.0 **** -0.24
35172 H 85.26659238830673 37.82118405731569 65.73925751687398 H 0.0 **** 0.06
35173 H 86.49096540529334 39.09697271332192 65.94032492145547 H 0.0 **** 0.06
35174 H 86.81009149724694 37.71904809220513 64.86025994600249 H 0.0 **** 0.06
35175 H 86.77304770480752 37.47676847186432 66.62272366988341 H 0.0 **** 0.06
35176 C 114.07834088627556 59.909596249337895 62.68329895554466 C 0.0 **** -0.24
35177 H 113.6344943868842 60.80465112252436 63.11942809480993 H 0.0 **** 0.06
35178 H 114.82460988043455 59.50276150758265 63.36659589318501 H 0.0 **** 0.06
35179 H 114.55308460621282 60.16441877788691 61.735484909656506 H 0.0 **** 0.06
35180 H 113.29969748840149 59.1662131363406 62.510043055329575 H 0.0 **** 0.06
35181 C 63.83371449620046 49.244028638292974 21.575267058639458 C 0.0 **** -0.24
35182 H 64.45314617367646 48.775516517626215 20.810062916001645 H 0.0 **** 0.06
35183 H 63.17297074883578 48.49655210734096 22.014541573486884 H 0.0 **** 0.06
35184 H 63.237532210520044 50.036905147144125 21.12400321492121 H 0.0 **** 0.06
35185 H 64.47306140201417 49.66678092724345 22.350898831074673 H 0.0 **** 0.06
35186 C 70.9731037430158 64.18015376312412 84.12224379028385 C 0.0 **** -0.24
35187 H 71.84853787401215 64.06794657371174 83.48094019219792 H 0.0 **** 0.06
35188 H 70.12436809934502 63.66489620997589 83.67229154123964 H 0.0 **** 0.06
35189 H 70.73904312559624 65.23880829643835 84.23506120755331 H 0.0 **** 0.06
35190 H 71.18404083218209 63.74898931239028 85.1011510108471 H 0.0 **** 0.06
35191 C 21.076434061400363 37.8179099454599 57.378884716607104 C 0.0 **** -0.24
35192 H 21.935605979272253 37.51892793565774 56.77912569785383 H 0.0 **** 0.06
35193 H 21.37820153743951 37.91811429968247 58.4217658537554 H 0.0 **** 0.06
35194 H 20.295737325900006 37.06147888666521 57.296810164080284 H 0.0 **** 0.06
35195 H 20.696191402989484 38.773118659834125 57.017837150738956 H 0.0 **** 0.06
35196 C 35.400346162376735 108.14172125663256 100.72272869598756 C 0.0 **** -0.24
35197 H 35.34980010597269 108.41304790050393 99.66884092607988 H 0.0 **** 0.06
35198 H 34.74400122521877 107.2911039581557 100.91059880054382 H 0.0 **** 0.06
35199 H 35.08075346597849 108.98842697900989 101.33140969956393 H 0.0 **** 0.06
35200 H 36.42495731067038 107.87551191878626 100.98108523237586 H 0.0 **** 0.06
35201 C 18.843808938763914 61.94939419736289 41.75982529242589 C 0.0 **** -0.24
35202 H 19.346518005711573 60.99584924573247 41.599890488288565 H 0.0 **** 0.06
35203 H 19.37174706687088 62.5139936584726 42.52763078458179 H 0.0 **** 0.06
35204 H 17.817531698787946 61.76917867378074 42.08133890372295 H 0.0 **** 0.06
35205 H 18.83903836978658 62.517504010366224 40.829583905905054 H 0.0 **** 0.06
35206 C 107.0290653067003 10.288460593935639 21.114510984674123 C 0.0 **** -0.24
35207 H 107.02644594460949 10.541222493947629 20.054364722081758 H 0.0 **** 0.06
35208 H 107.8319740154436 10.8306342541769 21.614713865866737 H 0.0 **** 0.06
35209 H 107.18639261405553 9.215905869174193 21.23094151248928 H 0.0 **** 0.06
35210 H 106.07207997793472 10.565057641648465 21.555889114186133 H 0.0 **** 0.06
35211 C 115.26141009083511 69.00078249527593 28.65568083568595 C 0.0 **** -0.24
35212 H 115.10118805499837 69.96091733625974 28.16552318511725 H 0.0 **** 0.06
35213 H 114.37708975105991 68.37664730102048 28.52904228797457 H 0.0 **** 0.06
35214 H 115.44378645023164 69.16154812968341 29.718476610568317 H 0.0 **** 0.06
35215 H 116.12433919342931 68.50516501588965 28.209364456233068 H 0.0 **** 0.06
35216 C 2.7955923555512925 90.31548263102587 94.66537429576641 C 0.0 **** -0.24
35217 H 2.630723656866394 90.44127914456291 95.7358952697615 H 0.0 **** 0.06
35218 H 1.8471951647121614 90.09834731785539 94.17420063571728 H 0.0 **** 0.06
35219 H 3.488261322146741 89.49101015813186 94.49974720161447 H 0.0 **** 0.06
35220 H 3.2170956385197087 91.2331074319885 94.25362640479631 H 0.0 **** 0.06
35221 C 38.404189497609366 92.05848980331632 48.53899640697832 C 0.0 **** -0.24
35222 H 38.75103658366481 92.41703580539837 47.57019540606202 H 0.0 **** 0.06
35223 H 37.43969060342744 91.56393503109845 48.41850953630238 H 0.0 **** 0.06
35224 H 38.29878320557873 92.9004083038518 49.2224569008278 H 0.0 **** 0.06
35225 H 39.12808318372373 91.35082903640591 48.943712051138846 H 0.0 **** 0.06
35226 C 24.284876442773083 53.381652069966094 40.89108433422547 C 0.0 **** -0.24
35227 H 25.339626710574663 53.35716155169146 40.61520083677431 H 0.0 **** 0.06
35228 H 24.053099134595584 52.51841457463825 41.51512109008172 H 0.0 **** 0.06
35229 H 23.673439761327757 53.35438131811183 39.98996616212787 H 0.0 **** 0.06
35230 H 24.076243027772563 54.297398712621586 41.44416998243102 H 0.0 **** 0.06
35231 C 105.95849748535579 56.91109499074264 73.8187566005571 C 0.0 **** -0.24
35232 H 106.60352601466195 56.427016210036584 74.55212110141667 H 0.0 **** 0.06
35233 H 105.14871971726916 56.23422832317647 73.54435343664886 H 0.0 **** 0.06
35234 H 106.54132948088898 57.16057504180887 72.93156373719677 H 0.0 **** 0.06
35235 H 105.5410012645645 57.822113705110084 74.24766377988709 H 0.0 **** 0.06
35236 C 79.4603218931374 17.182566292786788 73.08162269320786 C 0.0 **** -0.24
35237 H 80.13357721598646 17.244007360172525 73.93769565874166 H 0.0 **** 0.06
35238 H 78.98047354470111 18.14977867008983 72.92677300315034 H 0.0 **** 0.06
35239 H 78.70075920431788 16.42555658972436 73.27057572674977 H 0.0 **** 0.06
35240 H 80.02971617174276 16.912796577128976 72.19146928982448 H 0.0 **** 0.06
35241 C 13.531714469510632 26.809758842321486 100.42716659843884 C 0.0 **** -0.24
35242 H 13.480760689868418 26.493368437427364 99.38499270734661 H 0.0 **** 0.06
35243 H 13.111586618831893 26.031736104654783 101.06451953021863 H 0.0 **** 0.06
35244 H 12.963470655655783 27.731333013787662 100.55428301433662 H 0.0 **** 0.06
35245 H 14.572643726466424 26.983692718483667 100.70258433639188 H 0.0 **** 0.06
35246 C 51.19153109915621 11.689749077953877 23.846576775068833 C 0.0 **** -0.24
35247 H 50.952413002981004 12.484458798984974 24.553072731686882 H 0.0 **** 0.06
35248 H 51.33297384464598 12.11682722804727 22.853799482697987 H 0.0 **** 0.06
35249 H 50.37407235908935 10.969624511368863 23.82030250544302 H 0.0 **** 0.06
35250 H 52.106989565980854 11.187751631375647 24.16131948208499 H 0.0 **** 0.06
35251 C 103.15314789781695 25.20509497794565 9.490897608814663 C 0.0 **** -0.24
35252 H 102.09840170631344 25.437702603214603 9.63965497392708 H 0.0 **** 0.06
35253 H 103.75703113839359 25.80188811754472 10.1743217254567 H 0.0 **** 0.06
35254 H 103.43375227844126 25.435037937670643 8.462205201596753 H 0.0 **** 0.06
35255 H 103.3230038103423 24.14557251039642 9.685216229103112 H 0.0 **** 0.06
35256 C 2.8647587916281623 79.84682056290728 71.35519815476613 C 0.0 **** -0.24
35257 H 2.1726095867703066 79.5092657694895 72.12657535823695 H 0.0 **** 0.06
35258 H 2.664821372317647 79.30908149887063 70.42807016158969 H 0.0 **** 0.06
35259 H 3.8888093283964054 79.65152981175788 71.67504285546266 H 0.0 **** 0.06
35260 H 2.733695958421208 80.9163152286855 71.19111818251889 H 0.0 **** 0.06
35261 C 13.521105147864159 43.695153403563296 110.05895570599515 C 0.0 **** -0.24
35262 H 13.867892810650837 44.72125506284658 109.93918416870704 H 0.0 **** 0.06
35263 H 12.610853386195672 43.548912048249974 109.47564458011401 H 0.0 **** 0.06
35264 H 13.31228376237786 43.5027546872293 111.11197042309928 H 0.0 **** 0.06
35265 H 14.291512835385703 43.00720896995276 109.71013766421339 H 0.0 **** 0.06
35266 C 34.831374800713064 88.95325939696505 58.817396294721306 C 0.0 **** -0.24
35267 H 34.02639042944605 89.54767719210858 58.38433597004864 H 0.0 **** 0.06
35268 H 35.727535815459646 89.56836599630174 58.909764951213305 H 0.0 **** 0.06
35269 H 35.04091903078114 88.10074557855091 58.17106203276214 H 0.0 **** 0.06
35270 H 34.53114670600533 88.59759635414247 59.802707113353506 H 0.0 **** 0.06
35271 C 5.43962726304135 42.29764358565067 25.38895384531736 C 0.0 **** -0.24
35272 H 4.437756183358861 42.16386638345292 24.980675059271135 H 0.0 **** 0.06
35273 H 6.032592670951594 42.90616378471914 24.705547088955058 H 0.0 **** 0.06
35274 H 5.914485550140549 41.32367056065282 25.512306095607386 H 0.0 **** 0.06
35275 H 5.3749667175002465 42.795091999701114 26.356211615179802 H 0.0 **** 0.06
35276 C 80.86984933342302 14.693210703651687 100.35684528234702 C 0.0 **** -0.24
35277 H 81.9286275232335 14.437391119638676 100.39985284953178 H 0.0 **** 0.06
35278 H 80.72636655444205 15.532637577898072 99.67584321227633 H 0.0 **** 0.06
35279 H 80.52151563919 14.968843075828431 101.35291960937275 H 0.0 **** 0.06
35280 H 80.30232433444831 13.834102871052664 99.99958117306232 H 0.0 **** 0.06
35281 C 4.225801908173253 65.97032214819805 102.00972325241992 C 0.0 **** -0.24
35282 H 4.802178564869166 66.75086467954713 102.50561418653683 H 0.0 **** 0.06
35283 H 4.4282880026885465 65.99346182622992 100.93831970235163 H 0.0 **** 0.06
35284 H 3.162818265667255 66.13956021342113 102.18231763840737 H 0.0 **** 0.06
35285 H 4.509188855708587 64.99798784742882 102.41229794478028 H 0.0 **** 0.06
35286 C 25.95336960363649 70.63919082498943 109.48040751723785 C 0.0 **** -0.24
35287 H 26.685383583167628 70.23340952492252 108.78144422890442 H 0.0 **** 0.06
35288 H 25.005994218775847 70.79637766991488 108.9641229363561 H 0.0 **** 0.06
35289 H 26.315385818499642 71.58888684006087 109.87530033771584 H 0.0 **** 0.06
35290 H 25.807266159808286 69.9367083393677 110.30165094127803 H 0.0 **** 0.06
35291 C 96.0854803591399 62.69766792351285 12.068684939664081 C 0.0 **** -0.24
35292 H 96.11802356963133 62.5678619939297 10.986922990305459 H 0.0 **** 0.06
35293 H 95.84099105040673 61.745995506109324 12.541048326574412 H 0.0 **** 0.06
35294 H 95.32590284749392 63.43627027889593 12.323019494843095 H 0.0 **** 0.06
35295 H 97.05801202871373 63.0407678778094 12.422782629125663 H 0.0 **** 0.06
35296 C 91.25580908511489 48.86240416957921 39.04771400810182 C 0.0 **** -0.24
35297 H 90.63907821840502 49.12728937448685 38.18819641781661 H 0.0 **** 0.06
35298 H 91.42561703865738 47.7852754493679 39.054240027073206 H 0.0 **** 0.06
35299 H 90.74475009681879 49.155981951818205 39.9647152945642 H 0.0 **** 0.06
35300 H 92.2121197328766 49.38159834034761 38.982315786932816 H 0.0 **** 0.06
35301 C 85.7223355937904 74.20504706717189 9.401971244676929 C 0.0 **** -0.24
35302 H 85.85399999470192 73.375816960316 10.097473582897862 H 0.0 **** 0.06
35303 H 86.08961736014152 75.12420350508069 9.859950698097748 H 0.0 **** 0.06
35304 H 84.66423746451727 74.31470819030942 9.164704877294014 H 0.0 **** 0.06
35305 H 86.28030471511937 74.00490221982307 8.487569789849715 H 0.0 **** 0.06
35306 C 35.201726554551385 6.154025679898865 91.73957826264552 C 0.0 **** -0.24
35307 H 35.3225525393492 7.2328124953616 91.83020693641157 H 0.0 **** 0.06
35308 H 35.77509637938891 5.6563486382051735 92.52266270804873 H 0.0 **** 0.06
35309 H 35.56091258531103 5.828898236820862 90.76374680651591 H 0.0 **** 0.06
35310 H 34.146837410176886 5.896762735312109 91.84273983834834 H 0.0 **** 0.06
35311 C 112.34006091523696 103.45243220384333 14.228269034958146 C 0.0 **** -0.24
35312 H 112.31034343370254 104.4378628273283 13.76385447308402 H 0.0 **** 0.06
35313 H 111.40373281610294 103.27233011472163 14.756425718204184 H 0.0 **** 0.06
35314 H 113.17041372223338 103.40875666379954 14.932666072773511 H 0.0 **** 0.06
35315 H 112.47584719942705 102.69249949909275 13.45838855421713 H 0.0 **** 0.06
35316 C 41.17274880895178 21.289656078803432 62.836309942826034 C 0.0 **** -0.24
35317 H 41.055003105177974 22.280659209413898 62.39836328127244 H 0.0 **** 0.06
35318 H 42.23327448420039 21.04493542856136 62.89979757791788 H 0.0 **** 0.06
35319 H 40.66664346751759 20.553959232571003 62.20993530978521 H 0.0 **** 0.06
35320 H 40.73558280459261 21.278590349933268 63.83422323042021 H 0.0 **** 0.06
35321 C 114.45918699482775 24.472245123882615 10.446946179093516 C 0.0 **** -0.24
35322 H 115.20055737010222 24.459807204678263 9.64795943171299 H 0.0 **** 0.06
35323 H 113.88106828636347 25.394250805077156 10.39126137062641 H 0.0 **** 0.06
35324 H 114.96451205359114 24.417877411530853 11.411379852421362 H 0.0 **** 0.06
35325 H 113.79298234959231 23.616777877666173 10.336634350751012 H 0.0 **** 0.06
35326 C 111.1531364874099 114.66185723665674 96.58444869015386 C 0.0 **** -0.24
35327 H 111.06147787012392 114.56874269957845 97.6662069292252 H 0.0 **** 0.06
35328 H 110.16892336294738 114.83922989210538 96.15037836576857 H 0.0 **** 0.06
35329 H 111.57070985711134 113.74247189745466 96.17428820960593 H 0.0 **** 0.06
35330 H 111.81183385321916 115.49775248674433 96.3464202650959 H 0.0 **** 0.06
35331 C 104.48400633966547 30.817743530816244 56.698579780909085 C 0.0 **** -0.24
35332 H 103.7696750739085 31.349761644779846 57.32601030261394 H 0.0 **** 0.06
35333 H 104.33965343748368 29.74261895115052 56.81436858726421 H 0.0 **** 0.06
35334 H 105.49861098615465 31.08294546651814 56.99818281687165 H 0.0 **** 0.06
35335 H 104.32946094695251 31.09544124572554 55.65549957937621 H 0.0 **** 0.06
35336 C 55.862455453317466 7.214916921952863 20.814078393189064 C 0.0 **** -0.24
35337 H 54.87263234645184 7.664459716186997 20.73106584562933 H 0.0 **** 0.06
35338 H 56.018492626681905 6.523136976643002 19.98598269036748 H 0.0 **** 0.06
35339 H 55.93768368248743 6.674611441449201 21.75794081751104 H 0.0 **** 0.06
35340 H 56.62046341914555 7.997804777392162 20.782580691209347 H 0.0 **** 0.06
35341 C 7.582909257211327 68.18415113821695 92.70349809301752 C 0.0 **** -0.24
35342 H 7.2551271429667565 68.03504908101104 93.73254330335033 H 0.0 **** 0.06
35343 H 8.119678448769037 67.2987740546374 92.36191670814651 H 0.0 **** 0.06
35344 H 8.24128071492271 69.05109563078345 92.65354018361347 H 0.0 **** 0.06
35345 H 6.71325283025854 68.35004366318105 92.06614573085699 H 0.0 **** 0.06
35346 C 100.56707172803073 95.74328230772352 97.79420024583698 C 0.0 **** -0.24
35347 H 99.8697206390097 96.12954492266499 97.05122368398128 H 0.0 **** 0.06
35348 H 100.9923161108585 96.57352954886457 98.3588712459939 H 0.0 **** 0.06
35349 H 101.36671430509136 95.19652125360639 97.29324443668304 H 0.0 **** 0.06
35350 H 100.03886185383925 95.07426702448515 98.4735495181061 H 0.0 **** 0.06
35351 C 53.258315474346134 9.184441099333544 101.01255073759603 C 0.0 **** -0.24
35352 H 53.691420620664545 8.375306239655274 101.60072526304148 H 0.0 **** 0.06
35353 H 52.195330985552374 8.99511409834778 100.86220502449038 H 0.0 **** 0.06
35354 H 53.7591676446756 9.237782750491697 100.04576878657753 H 0.0 **** 0.06
35355 H 53.388888290102194 10.128005475259677 101.54194051343805 H 0.0 **** 0.06
35356 C 23.81659030088682 5.287081796623681 45.94494595902822 C 0.0 **** -0.24
35357 H 22.932182679652595 5.416620645548136 45.32042738430118 H 0.0 **** 0.06
35358 H 24.696311234013088 5.636668819377832 45.40375412705899 H 0.0 **** 0.06
35359 H 23.935919461242896 4.232014031029138 46.19159778589841 H 0.0 **** 0.06
35360 H 23.701826834925214 5.864560152414015 46.86210059909615 H 0.0 **** 0.06
35361 C 113.24863788387204 93.60598724316662 106.84734883333257 C 0.0 **** -0.24
35362 H 114.27053935404231 93.28409210458292 106.64796620228609 H 0.0 **** 0.06
35363 H 113.20758282627287 94.69551817275728 106.86424391052788 H 0.0 **** 0.06
35364 H 112.92574679654663 93.21519476623594 107.81269808818415 H 0.0 **** 0.06
35365 H 112.58985347444505 93.22968920137203 106.0643632193727 H 0.0 **** 0.06
35366 C 6.973311327628807 51.8937597114565 88.69887855557445 C 0.0 **** -0.24
35367 H 7.816347329785543 51.7377521749821 89.37183359953039 H 0.0 **** 0.06
35368 H 7.300885324359626 52.47301563088278 87.83484181765715 H 0.0 **** 0.06
35369 H 6.185971341183603 52.435122400120655 89.22225095704644 H 0.0 **** 0.06
35370 H 6.592032392020343 50.92892562328217 88.3655947916877 H 0.0 **** 0.06
35371 C 84.26161063227893 77.18190493131021 103.60557049353349 C 0.0 **** -0.24
35372 H 84.18702847132897 77.27932378858713 104.68869958483049 H 0.0 **** 0.06
35373 H 85.09893429223364 77.77947118742341 103.2441894599936 H 0.0 **** 0.06
35374 H 83.33883595158649 77.53395577629368 103.144866008478 H 0.0 **** 0.06
35375 H 84.4213367231011 76.13595721454146 103.34583901686312 H 0.0 **** 0.06
35376 C 47.5295956867532 105.09632422346272 26.352385439159264 C 0.0 **** -0.24
35377 H 46.512691882171936 104.71298069327628 26.432077998909847 H 0.0 **** 0.06
35378 H 47.71058336933255 105.43965440108968 25.333104572466368 H 0.0 **** 0.06
35379 H 48.23672984501879 104.30426550001067 26.60006638570988 H 0.0 **** 0.06
35380 H 47.66008154224723 105.92837319882597 27.044603266656765 H 0.0 **** 0.06
35381 C 2.6363156186889682 99.99998064701776 59.971459469656224 C 0.0 **** -0.24
35382 H 2.70746762463898 99.91813962665434 58.886304613019405 H 0.0 **** 0.06
35383 H 3.6262765086865443 100.19139031769924 60.38591736536159 H 0.0 **** 0.06
35384 H 2.2448719529236456 99.06854138406167 60.38026786042769 H 0.0 **** 0.06
35385 H 1.96780619765876 100.8201205033728 60.23143498458535 H 0.0 **** 0.06
35386 C 83.25989726754585 108.31769342029395 73.57945311259272 C 0.0 **** -0.24
35387 H 83.02269779585117 107.3230012122624 73.95802467339291 H 0.0 **** 0.06
35388 H 82.74237716451468 109.06644465909051 74.18021691951225 H 0.0 **** 0.06
35389 H 82.9361276046742 108.39830012046485 72.54171888558449 H 0.0 **** 0.06
35390 H 84.3351951943867 108.48238143693249 73.63940072385071 H 0.0 **** 0.06
35391 C 47.400725129212276 50.37002920231834 12.05701471244312 C 0.0 **** -0.24
35392 H 47.90897914258301 49.67488037520831 12.72557326948015 H 0.0 **** 0.06
35393 H 47.186446089296396 51.29603026999004 12.591632457005886 H 0.0 **** 0.06
35394 H 46.467862860468756 49.92544672625254 11.71182504960413 H 0.0 **** 0.06
35395 H 48.040811745550144 50.5838140140708 11.201163253212513 H 0.0 **** 0.06
35396 C 39.501780142678626 58.16913798199478 7.616688565671566 C 0.0 **** -0.24
35397 H 39.91467784869815 59.03633623255088 7.1015718613408865 H 0.0 **** 0.06
35398 H 39.589948641597346 58.31092761292658 8.693583890605652 H 0.0 **** 0.06
35399 H 40.05114513733281 57.27552308512982 7.3208270094864645 H 0.0 **** 0.06
35400 H 38.45134051089809 58.0544606807086 7.349540214399383 H 0.0 **** 0.06
35401 C 93.21515108602975 29.68378476636707 93.10735857933207 C 0.0 **** -0.24
35402 H 94.08383484398864 29.17487516557901 93.52652700520619 H 0.0 **** 0.06
35403 H 92.97278313075921 30.552339137435723 93.71845476292623 H 0.0 **** 0.06
35404 H 92.36576100513412 28.999490859984093 93.09409221729118 H 0.0 **** 0.06
35405 H 93.43902167223398 30.00572184895907 92.09046575594158 H 0.0 **** 0.06
35406 C 86.95632520903216 11.518121057850252 31.495238821430604 C 0.0 **** -0.24
35407 H 87.12081267717014 11.7774839942211 30.449466242709605 H 0.0 **** 0.06
35408 H 87.89749910730227 11.591463452274851 32.040732338691555 H 0.0 **** 0.06
35409 H 86.57601390329421 10.497963548832217 31.561779165230803 H 0.0 **** 0.06
35410 H 86.23024628963871 12.205039690217632 31.929406666861553 H 0.0 **** 0.06
35411 C 47.819566780587905 26.5189152265786 21.374164924539343 C 0.0 **** -0.24
35412 H 47.65033797635209 26.529711465284834 22.450147041319013 H 0.0 **** 0.06
35413 H 47.59646252015499 27.502974631095015 20.961825094458874 H 0.0 **** 0.06
35414 H 47.169977913795876 25.775658299363187 20.911334472657018 H 0.0 **** 0.06
35415 H 48.86082274903387 26.26749401573818 21.172628491874434 H 0.0 **** 0.06
35416 C 10.878587991313594 8.840625192982742 92.84674478347026 C 0.0 **** -0.24
35417 H 11.700329464423717 8.637201127069318 93.53271570369436 H 0.0 **** 0.06
35418 H 11.276964686967077 9.21400488206794 91.90252433287775 H 0.0 **** 0.06
35419 H 10.217288807582179 9.588596098462602 93.28318999247487 H 0.0 **** 0.06
35420 H 10.319075269701273 7.922306085710034 92.66701132000863 H 0.0 **** 0.06
35421 C 77.31635113550595 78.74765440729664 96.59613209854167 C 0.0 **** -0.24
35422 H 77.04871487889795 79.8007770705172 96.50859891027632 H 0.0 **** 0.06
35423 H 77.221055925657 78.4340205127574 97.63586340001129 H 0.0 **** 0.06
35424 H 78.34528984498672 78.60562519301811 96.26606335842591 H 0.0 **** 0.06
35425 H 76.64896283583573 78.15048090703687 95.97389799106877 H 0.0 **** 0.06
35426 C 87.45109801430236 14.948967444548884 41.816082434551106 C 0.0 **** -0.24
35427 H 88.3293474689454 15.44867608595095 42.22560747602421 H 0.0 **** 0.06
35428 H 87.51314324702484 14.940850587629441 40.72723665146023 H 0.0 **** 0.06
35429 H 86.5529149336842 15.482852836231473 42.126242213665705 H 0.0 **** 0.06
35430 H 87.41043863388447 13.924135935148371 42.185932108679765 H 0.0 **** 0.06
35431 C 100.29100041052624 2.70629135541985 108.37126309569067 C 0.0 **** -0.24
35432 H 101.11175104411234 3.4221204765942304 108.38998537386499 H 0.0 **** 0.06
35433 H 99.3416788922481 3.2405543355505415 108.41125416183894 H 0.0 **** 0.06
35434 H 100.37016293801369 2.040255099098033 109.23077143385623 H 0.0 **** 0.06
35435 H 100.33943082480943 2.120603983806717 107.45242337117577 H 0.0 **** 0.06
35436 C 2.0648273906872987 28.46205575091318 44.740250663964275 C 0.0 **** -0.24
35437 H 1.3164869235547485 28.79804088631704 45.45707352240575 H 0.0 **** 0.06
35438 H 1.8006010019928738 27.46776438555011 44.37799282890472 H 0.0 **** 0.06
35439 H 3.0405821337042482 28.42505135025354 45.224194757084064 H 0.0 **** 0.06
35440 H 2.1024900860244884 29.15659080936277 43.90091989613799 H 0.0 **** 0.06
35441 C 28.466758508251544 11.13373144340207 40.212801211375336 C 0.0 **** -0.24
35442 H 27.941960622401112 10.553164742033317 39.45465215576468 H 0.0 **** 0.06
35443 H 29.344173178768813 10.581287888840734 40.55011146974118 H 0.0 **** 0.06
35444 H 27.80208305933212 11.311143751234681 41.05807569646768 H 0.0 **** 0.06
35445 H 28.778426631328557 12.088351439074188 39.789309557620186 H 0.0 **** 0.06
35446 C 19.35770444560714 14.779256422359282 27.93307372894867 C 0.0 **** -0.24
35447 H 19.778723217572463 13.810370838788042 28.20288943122563 H 0.0 **** 0.06
35448 H 18.65287717719076 14.653918261364637 27.11206743632806 H 0.0 **** 0.06
35449 H 20.159142985164237 15.450600420923546 27.624901618153615 H 0.0 **** 0.06
35450 H 18.841491407051137 15.203006561615876 28.795126240918307 H 0.0 **** 0.06
35451 C 63.283668324452435 49.406892597337276 30.125181295435794 C 0.0 **** -0.24
35452 H 64.00732970971615 50.20212093096603 29.945827848557713 H 0.0 **** 0.06
35453 H 63.603233276706874 48.502417018035715 29.6060870744773 H 0.0 **** 0.06
35454 H 62.30658546809215 49.7140910330495 29.752527625968696 H 0.0 **** 0.06
35455 H 63.21917366330848 49.20860758960731 31.194502099256766 H 0.0 **** 0.06
35456 C 98.29513379018908 60.57714936895579 96.13916608314898 C 0.0 **** -0.24
35457 H 98.249357424398 59.517162277214595 96.38888880870266 H 0.0 **** 0.06
35458 H 97.36307345821956 60.87829953350965 95.66036476439331 H 0.0 **** 0.06
35459 H 99.12743468036928 60.754224717896804 95.45676429757326 H 0.0 **** 0.06
35460 H 98.44234838135196 61.158280338244154 97.04931068412472 H 0.0 **** 0.06
35461 C 100.68159263921957 42.239440440770984 85.80146804304255 C 0.0 **** -0.24
35462 H 101.70281384940294 42.383667847734024 85.44852717246486 H 0.0 **** 0.06
35463 H 100.18750395011197 41.488919184519695 85.18525971026118 H 0.0 **** 0.06
35464 H 100.13777453254605 43.182442975787374 85.73330847129641 H 0.0 **** 0.06
35465 H 100.70001628777295 41.90537186972424 86.8386793489076 H 0.0 **** 0.06
35466 C 33.60348084945184 100.62367404383153 7.396741511609644 C 0.0 **** -0.24
35467 H 33.07231308474931 101.55199559940876 7.188128444846999 H 0.0 **** 0.06
35468 H 34.45856987320147 100.53620692666985 6.727182131017832 H 0.0 **** 0.06
35469 H 32.93112277586752 99.77937516982536 7.241720113570951 H 0.0 **** 0.06
35470 H 33.94917428365878 100.62780121710377 8.43002584743352 H 0.0 **** 0.06
35471 C 19.073661488597903 106.90337689086694 45.19384187411367 C 0.0 **** -0.24
35472 H 18.559634601400337 107.6166822299076 45.83868328801725 H 0.0 **** 0.06
35473 H 20.14011071521193 106.91261830460236 45.42039701738014 H 0.0 **** 0.06
35474 H 18.92056039806812 107.18087645457805 44.150565953744945 H 0.0 **** 0.06
35475 H 18.673635496072386 105.90450913369692 45.36605953904643 H 0.0 **** 0.06
35476 C 2.139745478217975 70.88303147221416 25.4595433855292 C 0.0 **** -0.24
35477 H 1.6412005456978136 70.66448741533199 26.404079260824403 H 0.0 **** 0.06
35478 H 1.9098955468804206 70.09876925901486 24.73784304540706 H 0.0 **** 0.06
35479 H 3.2165712508684976 70.92590604666941 25.61946060067291 H 0.0 **** 0.06
35480 H 1.789942933577862 71.84213504960348 25.078350481229705 H 0.0 **** 0.06
35481 C 0.7177800773569345 97.26725746687335 72.30070393164073 C 0.0 **** -0.24
35482 H -0.3273026811654631 97.57799895847258 72.31087007780715 H 0.0 **** 0.06
35483 H 1.341690090769191 98.07807805331471 72.67670369762737 H 0.0 **** 0.06
35484 H 1.0139448383087313 97.02300827609287 71.2807047638126 H 0.0 **** 0.06
35485 H 0.8406162492581473 96.3888263919234 72.93471947549958 H 0.0 **** 0.06
35486 C 6.967249607179838 55.58265254566214 107.39638185332589 C 0.0 **** -0.24
35487 H 7.542527990819565 54.67544913245007 107.58124208279358 H 0.0 **** 0.06
35488 H 5.916702857015139 55.39835437990118 107.6212513051932 H 0.0 **** 0.06
35489 H 7.070884920525458 55.87211267555955 106.35043771845565 H 0.0 **** 0.06
35490 H 7.33965026133157 56.38462605692382 108.0349214981162 H 0.0 **** 0.06
35491 C 68.58492920355174 62.121208173235004 99.69039693903485 C 0.0 **** -0.24
35492 H 69.15223679994865 62.337187166473 98.78404390333036 H 0.0 **** 0.06
35493 H 68.149352279777 63.04313574954513 100.07452034621954 H 0.0 **** 0.06
35494 H 69.25030037416396 61.692922704245376 100.44127537289435 H 0.0 **** 0.06
35495 H 67.79071561888836 61.41018215061044 99.46092061819758 H 0.0 **** 0.06
35496 C 1.6209010360448133 14.093910367377333 36.72145605970966 C 0.0 **** -0.24
35497 H 1.095621495523531 14.345338784155103 37.64282824690983 H 0.0 **** 0.06
35498 H 1.281276527119445 13.12137404271013 36.36292442087323 H 0.0 **** 0.06
35499 H 2.693605954637519 14.056561303900168 36.91284778997248 H 0.0 **** 0.06
35500 H 1.4126471902036428 14.851824322153135 35.96599901219832 H 0.0 **** 0.06
35501 C 11.769288511291052 83.70856129315919 49.131767607280864 C 0.0 **** -0.24
35502 H 11.291019102280188 84.68281739552023 49.03267193261706 H 0.0 **** 0.06
35503 H 12.687018858618899 83.69371063927457 48.54316241917542 H 0.0 **** 0.06
35504 H 11.093077080391652 82.93447522609546 48.76959860089045 H 0.0 **** 0.06
35505 H 12.005296266238702 83.52426197463592 50.1795379160867 H 0.0 **** 0.06
35506 C 101.41571335094056 33.631856761127494 34.55879902200303 C 0.0 **** -0.24
35507 H 102.06545353060505 32.86935764793854 34.12950268868428 H 0.0 **** 0.06
35508 H 101.9573203052787 34.575598778315396 34.62436178997763 H 0.0 **** 0.06
35509 H 101.1033966961931 33.322662554342784 35.55692570611717 H 0.0 **** 0.06
35510 H 100.5379034279116 33.75913345563609 33.92615388220378 H 0.0 **** 0.06
35511 C 90.49725706215654 92.89534989704175 68.33346433669408 C 0.0 **** -0.24
35512 H 91.1458547129912 93.68427759388204 67.95237938224693 H 0.0 **** 0.06
35513 H 90.38016366933323 92.12318517713676 67.57293534244388 H 0.0 **** 0.06
35514 H 89.52174849541927 93.31484729573427 68.5790605745326 H 0.0 **** 0.06
35515 H 90.94165590276549 92.4604863969559 69.22853692644958 H 0.0 **** 0.06
35516 C 111.18343529887584 44.43725316495629 58.14994418427209 C 0.0 **** -0.24
35517 H 112.2604460198904 44.48447217838125 58.31090947586176 H 0.0 **** 0.06
35518 H 110.97525689969294 44.44305932137627 57.07945052875367 H 0.0 **** 0.06
35519 H 110.70797776408435 45.30039540530444 58.6174463197398 H 0.0 **** 0.06
35520 H 110.79006051183568 43.52108575476318 58.59197041273312 H 0.0 **** 0.06
35521 C 16.941911597167888 37.143221374139294 9.861246518806979 C 0.0 **** -0.24
35522 H 17.50867122759459 37.53943402944179 10.704129451665096 H 0.0 **** 0.06
35523 H 17.072362104904244 37.79558738875542 8.998115721537602 H 0.0 **** 0.06
35524 H 15.884775516538951 37.09499227788515 10.125130763812194 H 0.0 **** 0.06
35525 H 17.301956205063163 36.14325026416495 9.619810812669186 H 0.0 **** 0.06
35526 C 46.94250400987352 6.960570059033936 9.618545403434283 C 0.0 **** -0.24
35527 H 48.014788126851954 6.999077185511638 9.42627076665434 H 0.0 **** 0.06
35528 H 46.50668053642465 7.945472399733642 9.44766856385202 H 0.0 **** 0.06
35529 H 46.7698717878597 6.6605541980588985 10.65213437109503 H 0.0 **** 0.06
35530 H 46.47939040507407 6.236988102989304 8.946902227631497 H 0.0 **** 0.06
35531 C 33.38412893825114 41.58518863282305 46.63716280649277 C 0.0 **** -0.24
35532 H 33.97837149122509 42.199314614321594 47.31315583327387 H 0.0 **** 0.06
35533 H 32.77953680428989 40.88761792865108 47.217655765595566 H 0.0 **** 0.06
35534 H 34.04722660348747 41.02836432572656 45.97485113596616 H 0.0 **** 0.06
35535 H 32.73167769055294 42.225490564073425 46.04437085117519 H 0.0 **** 0.06
35536 C 101.08757425963114 57.741276144386916 55.05521437089377 C 0.0 **** -0.24
35537 H 101.92488423846814 58.32016142111945 55.446249467566716 H 0.0 **** 0.06
35538 H 100.59233750828933 57.22027898063706 55.87551867697116 H 0.0 **** 0.06
35539 H 101.45634745170942 57.013839213588994 54.33200457861235 H 0.0 **** 0.06
35540 H 100.37925004952689 58.41187717016771 54.568675950674226 H 0.0 **** 0.06
35541 C 89.1506016810306 34.085811330449644 61.2350251056979 C 0.0 **** -0.24
35542 H 89.31716438963548 34.65014715373235 60.31717188801815 H 0.0 **** 0.06
35543 H 89.98256162247054 33.39927009942829 61.39573732540714 H 0.0 **** 0.06
35544 H 88.22366789351918 33.51991615652929 61.150326372563825 H 0.0 **** 0.06
35545 H 89.08017495005794 34.77469780037865 62.07704356449577 H 0.0 **** 0.06
35546 C 22.22199526088602 23.42733357050065 98.17704250416836 C 0.0 **** -0.24
35547 H 22.127573077764765 22.426257512229824 98.59934193006688 H 0.0 **** 0.06
35548 H 22.739132155965365 24.073009433066204 98.88805077862298 H 0.0 **** 0.06
35549 H 21.230781989503072 23.830031841571554 97.97328088263907 H 0.0 **** 0.06
35550 H 22.793290130042266 23.377860083096152 97.25003597544799 H 0.0 **** 0.06
35551 C 95.87234983486492 108.5275923063848 24.149186120751068 C 0.0 **** -0.24
35552 H 96.88877038659915 108.32297664187183 23.814864166572974 H 0.0 **** 0.06
35553 H 95.16968818971931 108.27637160060976 23.353801684157162 H 0.0 **** 0.06
35554 H 95.77775585090802 109.58491212327883 24.397168685177206 H 0.0 **** 0.06
35555 H 95.65225685060108 107.92642829802259 25.03192816835937 H 0.0 **** 0.06
35556 C 3.487629925129852 110.217451349562 62.834353386299114 C 0.0 **** -0.24
35557 H 3.305449813153075 110.45420738460507 63.88176468997912 H 0.0 **** 0.06
35558 H 2.807703416046081 109.42570883323002 62.517121010419004 H 0.0 **** 0.06
35559 H 4.517864605581963 109.88362809680487 62.71183368220419 H 0.0 **** 0.06
35560 H 3.318186779000712 111.1067583157884 62.22654112417804 H 0.0 **** 0.06
35561 C 74.71525375492507 98.18398282549353 94.62515480839289 C 0.0 **** -0.24
35562 H 73.79566371000504 98.39074577222198 94.07704183798421 H 0.0 **** 0.06
35563 H 75.49570126698362 98.87248535183812 94.29826703932034 H 0.0 **** 0.06
35564 H 75.03056650763068 97.15893575930579 94.43064792664303 H 0.0 **** 0.06
35565 H 74.5395276800152 98.31383016978629 95.69225436956833 H 0.0 **** 0.06
35566 C 39.408831034082866 53.81428023077194 22.470731844597907 C 0.0 **** -0.24
35567 H 38.69892058260707 53.96323575259191 21.656579519276562 H 0.0 **** 0.06
35568 H 39.43984942738017 52.75755407335498 22.735617148532384 H 0.0 **** 0.06
35569 H 39.09635086726351 54.39833100056089 23.33652074024755 H 0.0 **** 0.06
35570 H 40.39862416986915 54.13868637410883 22.151375164187243 H 0.0 **** 0.06
35571 C 36.17057543042411 59.20660648408631 97.396875616676 C 0.0 **** -0.24
35572 H 35.15628989078657 58.81487195057139 97.32778588493565 H 0.0 **** 0.06
35573 H 36.223381147931505 60.16885618848332 96.88714662849017 H 0.0 **** 0.06
35574 H 36.862543444540684 58.50793857643498 96.92752507846808 H 0.0 **** 0.06
35575 H 36.438616515616175 59.33652248965586 98.44589822039848 H 0.0 **** 0.06
35576 C 54.25943219719606 84.65202185668738 17.884704281142916 C 0.0 **** -0.24
35577 H 54.815546368775486 85.24539328841024 18.611683665834676 H 0.0 **** 0.06
35578 H 54.81654562328316 84.60758867315808 16.94905484945994 H 0.0 **** 0.06
35579 H 53.28764305465183 85.11327418016909 17.70857730063564 H 0.0 **** 0.06
35580 H 54.11813541575773 83.64298049663763 18.272609341248867 H 0.0 **** 0.06
35581 C 112.65197153756058 69.40128937374033 82.74118725877452 C 0.0 **** -0.24
35582 H 113.00482141370505 68.40128446862713 82.48852795688435 H 0.0 **** 0.06
35583 H 113.12822421885458 70.13069722573496 82.08434919087529 H 0.0 **** 0.06
35584 H 112.90487634951019 69.62580772983034 83.777090334224 H 0.0 **** 0.06
35585 H 111.57053239039006 69.44771658473104 82.61185645939156 H 0.0 **** 0.06
35586 C 11.205410046563753 101.9597583800355 25.01195119122633 C 0.0 **** -0.24
35587 H 10.573526998779474 101.13612732940997 25.3432187863213 H 0.0 **** 0.06
35588 H 12.17356274089273 101.57109563867792 24.69660507646006 H 0.0 **** 0.06
35589 H 11.345422151699328 102.66305804357589 25.832599547578013 H 0.0 **** 0.06
35590 H 10.727233563184967 102.46935021795983 24.174355187173376 H 0.0 **** 0.06
35591 C 71.58623066352891 27.97739819488055 63.360324631809846 C 0.0 **** -0.24
35592 H 71.63070715437732 27.43530607019727 64.30505927137997 H 0.0 **** 0.06
35593 H 70.54613410422232 28.18892523979582 63.11078094561833 H 0.0 **** 0.06
35594 H 72.03320585621486 27.37002363513301 62.5736971217014 H 0.0 **** 0.06
35595 H 72.13626230197124 28.914410291716536 63.45325009356884 H 0.0 **** 0.06
35596 C 10.043766740999047 69.44633364077264 63.33065949155096 C 0.0 **** -0.24
35597 H 10.080301092867956 68.55509836721649 63.95630909305834 H 0.0 **** 0.06
35598 H 10.789279103913827 70.1626307441029 63.67546423511857 H 0.0 **** 0.06
35599 H 9.051796991038316 69.89457110142212 63.392955461816626 H 0.0 **** 0.06
35600 H 10.254806409586934 69.17191911930865 62.29668051148741 H 0.0 **** 0.06
35601 C 50.536914062809785 54.80389107159789 55.834502009636026 C 0.0 **** -0.24
35602 H 49.88612881005287 55.66242445263367 55.6704547328406 H 0.0 **** 0.06
35603 H 50.74639932783606 54.3193761016023 54.88090685712382 H 0.0 **** 0.06
35604 H 50.043921192502864 54.096823393648094 56.50116822637824 H 0.0 **** 0.06
35605 H 51.471483893189315 55.138326973046276 56.285503613176445 H 0.0 **** 0.06
35606 C 51.33812178409576 61.51505148622495 57.529170781196584 C 0.0 **** -0.24
35607 H 51.17749483332216 62.38908740220663 56.89804975349678 H 0.0 **** 0.06
35608 H 50.834037199074686 60.65281055681214 57.09208281112684 H 0.0 **** 0.06
35609 H 50.935402597584186 61.705965158759625 58.52361472086419 H 0.0 **** 0.06
35610 H 52.406956584987654 61.312178525629434 57.602976852341044 H 0.0 **** 0.06
35611 C 77.38091056752036 114.49837998844316 65.2966756713501 C 0.0 **** -0.24
35612 H 76.5269617591523 114.59007210275776 65.9675694945937 H 0.0 **** 0.06
35613 H 78.2466218467239 114.98808683452442 65.74185395376372 H 0.0 **** 0.06
35614 H 77.14537434096164 114.97074611524005 64.34241493866875 H 0.0 **** 0.06
35615 H 77.60303793064526 113.44323739549567 65.133684378682 H 0.0 **** 0.06
35616 C 89.98434581485253 85.3336937720108 110.76960736246963 C 0.0 **** -0.24
35617 H 89.29818293507276 85.48818089188188 109.93673354175266 H 0.0 **** 0.06
35618 H 90.5036790042476 84.38421306911346 110.63989235113442 H 0.0 **** 0.06
35619 H 89.42300094548023 85.31742618957901 111.70375769953239 H 0.0 **** 0.06
35620 H 90.7107609506711 86.14643890271617 110.79612159492274 H 0.0 **** 0.06
35621 C 96.13663189218386 108.76666643449856 109.86803219717277 C 0.0 **** -0.24
35622 H 95.49910272253794 108.45267572068539 109.04154327137007 H 0.0 **** 0.06
35623 H 95.52814817017975 108.91735740103138 110.75999709160129 H 0.0 **** 0.06
35624 H 96.63713322911559 109.69887328696815 109.60673288179834 H 0.0 **** 0.06
35625 H 96.88355809963568 107.99587292111057 110.06319179477862 H 0.0 **** 0.06
35626 C 7.877692941593224 46.84454693543222 60.50959108632196 C 0.0 **** -0.24
35627 H 7.86904167644694 46.040435677244886 59.77374885053854 H 0.0 **** 0.06
35628 H 8.419183712363335 46.51862170975778 61.397409210398735 H 0.0 **** 0.06
35629 H 6.853422705563361 47.09991106455101 60.77980055448592 H 0.0 **** 0.06
35630 H 8.369476520543444 47.71967495815238 60.08398980437602 H 0.0 **** 0.06
35631 C 14.53867913525471 114.83245693148892 74.04461077384421 C 0.0 **** -0.24
35632 H 15.003600373750885 113.88514426331402 73.77201676972471 H 0.0 **** 0.06
35633 H 14.991748441265372 115.63878221880957 73.46731594174308 H 0.0 **** 0.06
35634 H 14.687520774835434 115.01870766187152 75.10798905002623 H 0.0 **** 0.06
35635 H 13.469834569564227 114.78758976266785 73.83023046608027 H 0.0 **** 0.06
35636 C 46.36098420408183 74.73736547298826 37.49639093906433 C 0.0 **** -0.24
35637 H 45.31676869169121 74.78077328400522 37.80637689759152 H 0.0 **** 0.06
35638 H 46.421038357775274 74.81662253086681 36.410469473662936 H 0.0 **** 0.06
35639 H 46.795720371443366 73.79097806825895 37.816448498001684 H 0.0 **** 0.06
35640 H 46.9094138459285 75.56208974948021 37.95234312036571 H 0.0 **** 0.06
35641 C 54.033057546093005 108.60924720658863 79.14860946406301 C 0.0 **** -0.24
35642 H 54.534598543639106 109.13047256358868 78.33388420592811 H 0.0 **** 0.06
35643 H 54.76432494904162 108.33761963690966 79.91080371808536 H 0.0 **** 0.06
35644 H 53.55572240217987 107.70787134673691 78.76422518703157 H 0.0 **** 0.06
35645 H 53.277421801546666 109.26197576496631 79.58578975686339 H 0.0 **** 0.06
35646 C 64.87733544259859 99.2295710250795 41.802535236115915 C 0.0 **** -0.24
35647 H 65.02663626757251 99.59040477832669 40.78455495213211 H 0.0 **** 0.06
35648 H 65.67623532865615 99.6071345619727 42.44133594444042 H 0.0 **** 0.06
35649 H 64.8913053605284 98.14032751341989 41.80721351484855 H 0.0 **** 0.06
35650 H 63.91583805067077 99.5832574546246 42.17491976440236 H 0.0 **** 0.06
35651 C 107.44744957081775 95.8349659160049 95.41896892831807 C 0.0 **** -0.24
35652 H 107.38756827880985 96.44170911056177 96.32322030612602 H 0.0 **** 0.06
35653 H 107.90150441165116 96.41988225908698 94.61907729302612 H 0.0 **** 0.06
35654 H 106.44539260887687 95.52689631543609 95.12204727478843 H 0.0 **** 0.06
35655 H 108.05708279714553 94.95270791726071 95.61438825656109 H 0.0 **** 0.06
35656 C 82.88352453771645 52.68618319637528 82.04963754936256 C 0.0 **** -0.24
35657 H 82.27736765076257 52.984899783900005 82.90478945035488 H 0.0 **** 0.06
35658 H 83.36733668301946 51.732309422038725 82.2622763163127 H 0.0 **** 0.06
35659 H 83.64280341684322 53.444912993420985 81.85998988885189 H 0.0 **** 0.06
35660 H 82.24585208840269 52.58274615318919 81.17215527944913 H 0.0 **** 0.06
35661 C 45.85577048693649 66.2637193712859 42.06004571681126 C 0.0 **** -0.24
35662 H 46.041926832256564 66.30054362908783 43.13367851115919 H 0.0 **** 0.06
35663 H 44.916480373097755 65.74309617897265 41.87203997346438 H 0.0 **** 0.06
35664 H 46.670319060521194 65.73214982334525 41.56914864976602 H 0.0 **** 0.06
35665 H 45.793900625538285 67.27769347267605 41.66700360414774 H 0.0 **** 0.06
35666 C 7.215803734218127 83.750214870425 34.138928038968004 C 0.0 **** -0.24
35667 H 7.822708555966031 84.26212431347886 33.392230105071235 H 0.0 **** 0.06
35668 H 6.383526836819257 84.39118186914516 34.430259540035365 H 0.0 **** 0.06
35669 H 7.827344587054995 83.52728902225792 35.01374199371304 H 0.0 **** 0.06
35670 H 6.83019608037749 82.82102384590868 33.7191514999551 H 0.0 **** 0.06
35671 C 108.9629820918341 10.262519088398946 61.71991781014128 C 0.0 **** -0.24
35672 H 109.48337637378401 9.663252019782206 62.467881979499 H 0.0 **** 0.06
35673 H 108.75547583486426 11.252518324214535 62.128213439081094 H 0.0 **** 0.06
35674 H 108.02556402729235 9.77642579309196 61.45239930697386 H 0.0 **** 0.06
35675 H 109.58905630345481 10.360298957570393 60.83283959943594 H 0.0 **** 0.06
35676 C 82.70587488626198 99.98979638976797 111.77723777299889 C 0.0 **** -0.24
35677 H 83.66225140999867 100.29761903773914 112.19858163536827 H 0.0 **** 0.06
35678 H 82.8415605656359 99.07630487501325 111.19725133443411 H 0.0 **** 0.06
35679 H 82.32320125549016 100.77844249405564 111.12916001074966 H 0.0 **** 0.06
35680 H 81.99624496122176 99.80523576115428 112.58329872380786 H 0.0 **** 0.06
35681 C 46.875476479835896 107.74089862999858 55.48523994306977 C 0.0 **** -0.24
35682 H 47.542306567895295 108.22460910590922 54.77087910186572 H 0.0 **** 0.06
35683 H 47.276068623736194 107.85846381741072 56.492431062340344 H 0.0 **** 0.06
35684 H 46.79641399260433 106.68013851006896 55.246638472501864 H 0.0 **** 0.06
35685 H 45.88903822794805 108.20133242442387 55.428911817889386 H 0.0 **** 0.06
35686 C 37.479544964436656 86.95437792452071 8.545322742875953 C 0.0 **** -0.24
35687 H 36.80842300443339 87.52635483016854 9.185771232239091 H 0.0 **** 0.06
35688 H 37.18856097130404 85.90387143278554 8.561354051977077 H 0.0 **** 0.06
35689 H 38.502139488106906 87.05397429022969 8.910965501712127 H 0.0 **** 0.06
35690 H 37.420129581394235 87.33405751734551 7.5259005019525205 H 0.0 **** 0.06
35691 C 28.06069978576454 28.91407328467774 81.580635225497 C 0.0 **** -0.24
35692 H 28.320339653620465 29.971867625927857 81.61124205344217 H 0.0 **** 0.06
35693 H 27.2226700992652 28.72597790936797 82.25115955875964 H 0.0 **** 0.06
35694 H 28.919473840167484 28.320112880479485 81.89489430523531 H 0.0 **** 0.06
35695 H 27.78200980573473 28.638463422329565 80.56348053699975 H 0.0 **** 0.06
35696 C 5.784613777957929 91.23240971947826 10.187182130033975 C 0.0 **** -0.24
35697 H 5.632233062517116 90.15248298340668 10.188912406878728 H 0.0 **** 0.06
35698 H 6.047121075780581 91.56371789362632 11.192851298770776 H 0.0 **** 0.06
35699 H 4.868075828755707 91.7276929896953 9.868409233943993 H 0.0 **** 0.06
35700 H 6.591977359711677 91.48401862416401 9.499610643993265 H 0.0 **** 0.06
35701 C 102.29066352808272 76.45640376331059 24.57532148826013 C 0.0 **** -0.24
35702 H 103.18667604805425 75.83680141679015 24.54313403542585 H 0.0 **** 0.06
35703 H 102.21003508227061 76.92705803402879 25.5549235190945 H 0.0 **** 0.06
35704 H 101.41238647068396 75.83455424639133 24.397385445413818 H 0.0 **** 0.06
35705 H 102.35287798450433 77.2248697754485 23.805520967838532 H 0.0 **** 0.06
35706 C 87.91351713046906 79.3232797024168 34.48354262929192 C 0.0 **** -0.24
35707 H 86.86172285251247 79.18380555941553 34.23278907937038 H 0.0 **** 0.06
35708 H 88.10974990934372 78.90389727210182 35.469993130839924 H 0.0 **** 0.06
35709 H 88.14722286584558 80.38826876404666 34.48772877153348 H 0.0 **** 0.06
35710 H 88.53365846239011 78.81841534303307 33.74298658892948 H 0.0 **** 0.06
35711 C 51.3633642144095 22.832537064422297 61.15237931537965 C 0.0 **** -0.24
35712 H 51.19209837451518 23.04444425298007 60.09704007961426 H 0.0 **** 0.06
35713 H 50.69616119273297 22.031548553336137 61.47428180942063 H 0.0 **** 0.06
35714 H 51.163884845867585 23.729044533133873 61.73963301714423 H 0.0 **** 0.06
35715 H 52.3980424237335 22.52456289066464 61.29864753339615 H 0.0 **** 0.06
35716 C 23.628438919398093 105.32390331169337 96.98069581137139 C 0.0 **** -0.24
35717 H 22.94610702347495 105.44638040660156 96.13981408724476 H 0.0 **** 0.06
35718 H 24.336969868703648 106.1515968780083 96.99690586418242 H 0.0 **** 0.06
35719 H 24.169746294577237 104.38311814447906 96.87571387849175 H 0.0 **** 0.06
35720 H 23.05989177975826 105.31379191619477 97.91097399638875 H 0.0 **** 0.06
35721 C 32.60674114413597 92.80092256485852 37.5206788468231 C 0.0 **** -0.24
35722 H 32.884446234086894 92.632455096336 36.480092395993466 H 0.0 **** 0.06
35723 H 33.08570176824759 93.71111573612609 37.88166315283469 H 0.0 **** 0.06
35724 H 32.93197217951702 91.9539687855173 38.12401835970641 H 0.0 **** 0.06
35725 H 31.52499996480401 92.90564383952142 37.594549974855994 H 0.0 **** 0.06
35726 C 102.86566676474988 42.25497868933357 79.9814219991352 C 0.0 **** -0.24
35727 H 101.88740109391591 42.72250052337037 79.86692658666607 H 0.0 **** 0.06
35728 H 102.80308919102225 41.461346355306716 80.72717693411488 H 0.0 **** 0.06
35729 H 103.58957961547284 43.00213183349814 80.30534616828803 H 0.0 **** 0.06
35730 H 103.18035460560475 41.833668465198315 79.02718683172165 H 0.0 **** 0.06
35731 C 44.1645850223945 8.079313211983873 0.23936742281424017 C 0.0 **** -0.24
35732 H 44.75264406668451 8.673288554943785 0.9380406872475362 H 0.0 **** 0.06
35733 H 43.14003771783654 8.449674351004642 0.21982380791821754 H 0.0 **** 0.06
35734 H 44.16854946938511 7.0365558680439175 0.5569126386884875 H 0.0 **** 0.06
35735 H 44.5990019134545 8.156689837744505 -0.7578785043974818 H 0.0 **** 0.06
35736 C 53.0784762253337 3.3213874420762295 70.36325568116729 C 0.0 **** -0.24
35737 H 52.031015464396944 3.3275863756854847 70.66341569933019 H 0.0 **** 0.06
35738 H 53.67830656998137 3.813918720618716 71.12891427392009 H 0.0 **** 0.06
35739 H 53.18855553650138 3.852087486247342 69.41732514056997 H 0.0 **** 0.06
35740 H 53.41613376913358 2.2909634367225067 70.24333310673632 H 0.0 **** 0.06
35741 C 45.04694786764395 94.06189287505796 77.5746772486902 C 0.0 **** -0.24
35742 H 45.394902304424136 94.60269615804548 78.45491419841798 H 0.0 **** 0.06
35743 H 45.33636097615573 94.60676373035089 76.67556134299099 H 0.0 **** 0.06
35744 H 43.961491975714864 93.97043948350746 77.61027673419676 H 0.0 **** 0.06
35745 H 45.49459296487703 93.06842309193937 77.55746718827555 H 0.0 **** 0.06
35746 C 79.41313986449363 80.23024756730575 108.62221081419275 C 0.0 **** -0.24
35747 H 79.03747367108464 80.02342586443223 107.62028854757075 H 0.0 **** 0.06
35748 H 80.32570773131978 79.65784286572222 108.7929778621571 H 0.0 **** 0.06
35749 H 78.66144529925828 79.94346549492064 109.35795798998474 H 0.0 **** 0.06
35750 H 79.62793268031342 81.29425608336419 108.71763846081603 H 0.0 **** 0.06
35751 C 112.54456230796089 73.77802059027175 8.40288715970479 C 0.0 **** -0.24
35752 H 113.21929596079919 73.0956922048325 8.920029341320713 H 0.0 **** 0.06
35753 H 113.1199496686746 74.59348269904844 7.963308321176299 H 0.0 **** 0.06
35754 H 111.82295237651348 74.18267131912522 9.112900170742876 H 0.0 **** 0.06
35755 H 112.01711282009877 73.23889368962853 7.615577302114559 H 0.0 **** 0.06
35756 C 96.03187112730018 64.75633288478457 112.81502678255342 C 0.0 **** -0.24
35757 H 95.81506397626532 63.695185297514286 112.94050207950629 H 0.0 **** 0.06
35758 H 97.07325184460709 64.94766855833262 113.0727638233055 H 0.0 **** 0.06
35759 H 95.3820836982893 65.3388561740087 113.46894155449189 H 0.0 **** 0.06
35760 H 95.85435977233377 65.04287060466538 111.77799859515027 H 0.0 **** 0.06
35761 C 1.4129383968523257 102.430526638077 56.52090177702786 C 0.0 **** -0.24
35762 H 2.2187598873739205 103.13422040831726 56.316101228169316 H 0.0 **** 0.06
35763 H 0.7443234399495964 102.8522198220669 57.27227220997912 H 0.0 **** 0.06
35764 H 1.832034616730681 101.49513243761686 56.890330449852456 H 0.0 **** 0.06
35765 H 0.8538527130082514 102.2419280532584 55.60338260379922 H 0.0 **** 0.06
35766 C 13.661311800874522 107.88194750787075 0.8715354266488777 C 0.0 **** -0.24
35767 H 13.979172125431436 108.24057654001291 -0.10685790802379547 H 0.0 **** 0.06
35768 H 13.722830163658902 108.69711654101567 1.5943878638640072 H 0.0 **** 0.06
35769 H 14.31020551779902 107.0660467040667 1.1877889658386334 H 0.0 **** 0.06
35770 H 12.632025749082409 107.5268146088311 0.8113983982700486 H 0.0 **** 0.06
35771 C 94.90863580836032 59.6610409602298 70.88091682541304 C 0.0 **** -0.24
35772 H 93.96059995121925 59.33552631002226 71.30971958740832 H 0.0 **** 0.06
35773 H 95.40383206062796 58.81339312076079 70.40794290657186 H 0.0 **** 0.06
35774 H 95.54542951530962 60.06079652987728 71.66990212105497 H 0.0 **** 0.06
35775 H 94.72321953694177 60.436331167305866 70.13666449786987 H 0.0 **** 0.06
35776 C 18.918727731189136 75.59371232953174 0.9558075683955565 C 0.0 **** -0.24
35777 H 19.859203650596797 75.06354155689613 0.801442335834949 H 0.0 **** 0.06
35778 H 19.083878190180158 76.66570712382865 0.8463998038690903 H 0.0 **** 0.06
35779 H 18.544352492527466 75.3834690528329 1.9579724914583636 H 0.0 **** 0.06
35780 H 18.1888498087103 75.26190764719895 0.21766909880716412 H 0.0 **** 0.06
35781 C 30.492284736427408 58.47099938505863 21.822245940390133 C 0.0 **** -0.24
35782 H 31.493070550236325 58.82076040128942 22.07469101138051 H 0.0 **** 0.06
35783 H 30.20595129943395 58.8656719145697 20.846156063368937 H 0.0 **** 0.06
35784 H 29.78485925607687 58.817090995978276 22.575960311253056 H 0.0 **** 0.06
35785 H 30.485341301195078 57.38135566672503 21.79068766091666 H 0.0 **** 0.06
35786 C 31.380673755946816 44.1877069500193 6.81477110364095 C 0.0 **** -0.24
35787 H 31.793767377523466 43.18260610588068 6.732075971502496 H 0.0 **** 0.06
35788 H 30.612913070461673 44.202010055880315 7.588606051590517 H 0.0 **** 0.06
35789 H 30.940188638867824 44.4790681326226 5.860404732807837 H 0.0 **** 0.06
35790 H 32.174255167025876 44.886606256528246 7.076499550008961 H 0.0 **** 0.06
35791 C 108.9604923606471 97.21490707414083 46.946941046190545 C 0.0 **** -0.24
35792 H 109.50553473656115 97.86573255448718 46.263956053321124 H 0.0 **** 0.06
35793 H 109.5744159537719 97.01312685684411 47.824872783689955 H 0.0 **** 0.06
35794 H 108.72516598504207 96.27638014772381 46.44410776021448 H 0.0 **** 0.06
35795 H 108.03530156579393 97.70429548023449 47.25321968158573 H 0.0 **** 0.06
35796 C 37.134430501409184 18.04429495619246 65.98639468795443 C 0.0 **** -0.24
35797 H 36.09674146134597 18.0993992119283 66.31321183615756 H 0.0 **** 0.06
35798 H 37.488570894800404 19.04340963922988 65.73099690041448 H 0.0 **** 0.06
35799 H 37.20615837158243 17.39842494088083 65.11073342615242 H 0.0 **** 0.06
35800 H 37.74721836403228 17.635711856538137 66.79053677526292 H 0.0 **** 0.06
35801 C 68.74566412948101 70.52369231569008 103.9899705684939 C 0.0 **** -0.24
35802 H 67.96933278478278 69.88792308152364 104.41449338527116 H 0.0 **** 0.06
35803 H 68.28956529382268 71.26391895109913 103.33239931820935 H 0.0 **** 0.06
35804 H 69.44430373655118 69.91120606761842 103.4200022804518 H 0.0 **** 0.06
35805 H 69.27899291818255 71.03088606329152 104.79443281239304 H 0.0 **** 0.06
35806 C 95.09868958553238 20.51568419497608 107.13402376648519 C 0.0 **** -0.24
35807 H 95.75567896352669 19.64574867638062 107.15534860854524 H 0.0 **** 0.06
35808 H 94.12651965995022 20.246674216319214 107.54853901300804 H 0.0 **** 0.06
35809 H 94.97417564012906 20.850915708218636 106.10492629921858 H 0.0 **** 0.06
35810 H 95.53868597575044 21.31707311517588 107.72799056571893 H 0.0 **** 0.06
35811 C 105.51628288206827 13.662846392658565 26.59606361387665 C 0.0 **** -0.24
35812 H 105.43118530375995 13.040001972243601 27.48770698640871 H 0.0 **** 0.06
35813 H 105.89762564362763 13.062423834485344 25.769880203814978 H 0.0 **** 0.06
35814 H 106.20125776417134 14.48748468341148 26.79368361314397 H 0.0 **** 0.06
35815 H 104.5356944655014 14.059377393609793 26.335473904140144 H 0.0 **** 0.06
35816 C 25.29413819191251 58.36256097051415 33.65021625409193 C 0.0 **** -0.24
35817 H 25.97221154264171 59.09594003490733 34.087062054737686 H 0.0 **** 0.06
35818 H 24.730712831926162 58.827876395501335 32.840920869252955 H 0.0 **** 0.06
35819 H 24.603886502361256 58.00640731538948 34.41499513554868 H 0.0 **** 0.06
35820 H 25.86893987312567 57.52388802871434 33.25906896460414 H 0.0 **** 0.06
35821 C 12.045320951773562 55.91971580022303 81.58826197255397 C 0.0 **** -0.24
35822 H 11.799044405444363 56.90501076390903 81.19239424817587 H 0.0 **** 0.06
35823 H 13.073004495345742 55.667600037722245 81.32333965989483 H 0.0 **** 0.06
35824 H 11.368582530417598 55.1783610116362 81.16342348706235 H 0.0 **** 0.06
35825 H 11.941165645695946 55.92768589672534 82.67305719774414 H 0.0 **** 0.06
35826 C 50.52885476177022 14.234290267778704 12.959599570350917 C 0.0 **** -0.24
35827 H 50.97594937575015 15.04298822372536 12.380915188496203 H 0.0 **** 0.06
35828 H 51.23368082325828 13.40526205493245 13.028737417055652 H 0.0 **** 0.06
35829 H 49.6170504974188 13.897019881596236 12.468525114359693 H 0.0 **** 0.06
35830 H 50.291074058033246 14.593736474623682 13.96059322379648 H 0.0 **** 0.06
35831 C 14.825188319640848 27.84570317286159 27.47857729862693 C 0.0 **** -0.24
35832 H 15.447178759625618 28.595313343126918 27.96553819556584 H 0.0 **** 0.06
35833 H 14.997014155859073 27.87487095784749 26.401531892348828 H 0.0 **** 0.06
35834 H 13.775847923642694 28.05410641289589 27.685546707278377 H 0.0 **** 0.06
35835 H 15.081139321398503 26.856613246795888 27.86060851605987 H 0.0 **** 0.06
35836 C 101.45826011515373 112.980397222347 11.433961081118412 C 0.0 **** -0.24
35837 H 100.39400758682659 112.95784460598723 11.67013799816715 H 0.0 **** 0.06
35838 H 101.88915916314062 113.91668771657595 11.788977544249349 H 0.0 **** 0.06
35839 H 101.5919994782733 112.90273281557948 10.355508711824427 H 0.0 **** 0.06
35840 H 101.9558033463875 112.14268515185495 11.922643774916253 H 0.0 **** 0.06
35841 C 60.81241668148755 38.06398909515951 31.083901311772365 C 0.0 **** -0.24
35842 H 60.29758549996643 37.61301238197933 31.931975829582 H 0.0 **** 0.06
35843 H 60.0811947359997 38.36909392818441 30.334801780218896 H 0.0 **** 0.06
35844 H 61.498943919501926 37.33810519676132 30.647844564324686 H 0.0 **** 0.06
35845 H 61.373221429713396 38.935242121003796 31.42131754643688 H 0.0 **** 0.06
35846 C 104.34032375361888 36.773698469088686 4.84705433109491 C 0.0 **** -0.24
35847 H 103.78006896220762 35.83820924794455 4.847358369821052 H 0.0 **** 0.06
35848 H 105.17019216076484 36.69958032624018 4.144913726087907 H 0.0 **** 0.06
35849 H 104.72639342740943 36.96628173096269 5.848326262886815 H 0.0 **** 0.06
35850 H 103.68248011245879 37.589843308591526 4.5483673767263895 H 0.0 **** 0.06
35851 C 66.9879396870858 88.92983357109165 89.3313431566784 C 0.0 **** -0.24
35852 H 67.47718321381217 89.27952987878689 90.24015930372377 H 0.0 **** 0.06
35853 H 67.74381811095938 88.63621134068563 88.6020212617687 H 0.0 **** 0.06
35854 H 66.37364380700353 89.73008805769842 88.91782904576127 H 0.0 **** 0.06
35855 H 66.35761862474638 88.07120070130895 89.56602292628082 H 0.0 **** 0.06
35856 C 51.285852628967405 8.579501597568935 18.22231331143302 C 0.0 **** -0.24
35857 H 51.971647770010236 9.388567699783039 18.474598163093 H 0.0 **** 0.06
35858 H 51.43048828398162 7.750906679820844 18.916671742031916 H 0.0 **** 0.06
35859 H 51.4821735884052 8.239797607158351 17.205833217660597 H 0.0 **** 0.06
35860 H 50.25884723892358 8.938463274381434 18.294355217688263 H 0.0 **** 0.06
35861 C 70.49139707481703 4.05995957725537 49.99234155376027 C 0.0 **** -0.24
35862 H 69.41843273066456 4.112952539142341 49.807217732165626 H 0.0 **** 0.06
35863 H 70.8017120149101 4.92448514753039 50.57942650975349 H 0.0 **** 0.06
35864 H 71.0245326799203 4.056362944311701 49.04128315269507 H 0.0 **** 0.06
35865 H 70.72067206975493 3.1461977579548233 50.54048100837733 H 0.0 **** 0.06
35866 C 2.608469988802227 31.26826704397928 41.01739572214579 C 0.0 **** -0.24
35867 H 2.449547835390007 32.18410333364413 40.44718238163528 H 0.0 **** 0.06
35868 H 2.2163260750306506 30.419366232551766 40.457417052258094 H 0.0 **** 0.06
35869 H 2.091319895436186 31.343599272857574 41.97451298368485 H 0.0 **** 0.06
35870 H 3.675530211958005 31.128935732007776 41.19067531465437 H 0.0 **** 0.06
35871 C 36.04407481987022 5.917349588529532 9.739500344474791 C 0.0 **** -0.24
35872 H 35.68123308827262 4.978289967272843 10.158136816987096 H 0.0 **** 0.06
35873 H 35.7283249772655 6.744957397093927 10.376461908598088 H 0.0 **** 0.06
35874 H 35.63273201906334 6.051789556911359 8.738154921846046 H 0.0 **** 0.06
35875 H 37.13185340681406 5.8947891072674565 9.684835472404927 H 0.0 **** 0.06
35876 C 23.466204502249838 36.655657672563734 46.7824977994631 C 0.0 **** -0.24
35877 H 23.32818750775803 36.977507937467635 47.8146258245759 H 0.0 **** 0.06
35878 H 24.51803884953074 36.74845526294314 46.51046523436389 H 0.0 **** 0.06
35879 H 22.863227599800865 37.28004017970966 46.124150001437556 H 0.0 **** 0.06
35880 H 23.154840192844375 35.615302976750485 46.68274313871416 H 0.0 **** 0.06
35881 C 48.32012979621222 36.3342945796021 32.10415489961588 C 0.0 **** -0.24
35882 H 47.44870609285151 35.77211463797147 31.769779441318576 H 0.0 **** 0.06
35883 H 49.158366865795635 36.13598024087037 31.435763077903687 H 0.0 **** 0.06
35884 H 48.58291891015444 36.028711119716945 33.11724582544878 H 0.0 **** 0.06
35885 H 48.09109132106762 37.399093060317455 32.09361792983361 H 0.0 **** 0.06
35886 C 6.043898547946881 73.93909725196528 83.94771202701632 C 0.0 **** -0.24
35887 H 5.2353151620746985 74.47322851823091 83.44834315167601 H 0.0 **** 0.06
35888 H 5.991529393245472 74.12258230831456 85.02133408112861 H 0.0 **** 0.06
35889 H 7.002498342058701 74.29121914257217 83.56447416603665 H 0.0 **** 0.06
35890 H 5.946092541303585 72.87107609720414 83.75653337435386 H 0.0 **** 0.06
35891 C 63.63753276480104 0.3984296680983448 39.14528832997536 C 0.0 **** -0.24
35892 H 63.95292881362754 -0.6439137960646235 39.113211459734316 H 0.0 **** 0.06
35893 H 63.820194775963955 0.8630616456750317 38.176405332705144 H 0.0 **** 0.06
35894 H 64.20399635142864 0.9256782744777183 39.91321638239418 H 0.0 **** 0.06
35895 H 62.574284119257086 0.4494980680260596 39.378206444320824 H 0.0 **** 0.06
35896 C 107.66242519681896 35.21537416012799 114.10027750630037 C 0.0 **** -0.24
35897 H 108.7243499077291 34.98262866660923 114.01303602969621 H 0.0 **** 0.06
35898 H 107.19995742017596 34.53505701151229 114.81624730751848 H 0.0 **** 0.06
35899 H 107.18398393959939 35.10095391048989 113.12742317836384 H 0.0 **** 0.06
35900 H 107.54377192120938 36.24210942596068 114.44609484834068 H 0.0 **** 0.06
35901 C 91.4472410476747 94.45778418423492 64.63984558776701 C 0.0 **** -0.24
35902 H 91.01159795374167 95.45243433811646 64.54580989283477 H 0.0 **** 0.06
35903 H 92.37336083343271 94.4115460812123 64.06690428701847 H 0.0 **** 0.06
35904 H 90.74503449044771 93.71624187622518 64.25840288974592 H 0.0 **** 0.06
35905 H 91.65848034986274 94.2534413087418 65.68980632035812 H 0.0 **** 0.06
35906 C 76.08417230383938 15.975155014697183 87.30178001387452 C 0.0 **** -0.24
35907 H 75.1720443863928 15.42271239947382 87.52788703311504 H 0.0 **** 0.06
35908 H 76.61897766134055 15.477715431571088 86.49209507584078 H 0.0 **** 0.06
35909 H 76.71801912980453 16.00951251791601 88.18816725825518 H 0.0 **** 0.06
35910 H 75.82831008460151 16.99000508810077 86.99864413592404 H 0.0 **** 0.06
35911 C 63.40091539606351 86.05514935270466 54.24464103829158 C 0.0 **** -0.24
35912 H 63.61983915263505 85.50957140405231 53.32612826753218 H 0.0 **** 0.06
35913 H 62.46736008855589 86.6043522249119 54.12700097806358 H 0.0 **** 0.06
35914 H 64.21118677653749 86.7542668278432 54.45306281397099 H 0.0 **** 0.06
35915 H 63.307677848320395 85.35103308550202 55.070841702761 H 0.0 **** 0.06
35916 C 108.38698134801558 5.71156613177132 62.729133460013145 C 0.0 **** -0.24
35917 H 108.03230754301899 5.1494456094444985 61.866203874868006 H 0.0 **** 0.06
35918 H 107.7403486413431 6.57398901948649 62.89221467378033 H 0.0 **** 0.06
35919 H 109.40679132726237 6.050332141386804 62.54805413899959 H 0.0 **** 0.06
35920 H 108.36935262273886 5.07186821631241 63.61202043518972 H 0.0 **** 0.06
35921 C 87.2564040951892 8.342116398170504 61.019623425974586 C 0.0 **** -0.24
35922 H 87.80924801301131 8.857511350276411 60.23416419318754 H 0.0 **** 0.06
35923 H 86.59833589991291 9.048823493884171 61.524587632454654 H 0.0 **** 0.06
35924 H 87.95806188663772 7.919894928546626 61.73974979647423 H 0.0 **** 0.06
35925 H 86.66192863733141 7.541292864583866 60.58051851848836 H 0.0 **** 0.06
35926 C 54.775950509828476 51.03172637583674 107.9830204868295 C 0.0 **** -0.24
35927 H 55.231973035231704 50.761833043142644 108.93494460900189 H 0.0 **** 0.06
35928 H 54.4092251973961 50.1318004055903 107.4881958611814 H 0.0 **** 0.06
35929 H 55.51832078720986 51.51795351884641 107.34951347506757 H 0.0 **** 0.06
35930 H 53.94538810829016 51.71413355352729 108.15881582040248 H 0.0 **** 0.06
35931 C 44.311639097440576 42.95628639935313 20.722453217455815 C 0.0 **** -0.24
35932 H 44.11301595849797 43.72335545462374 21.470965387063565 H 0.0 **** 0.06
35933 H 45.388010016482966 42.834706978851244 20.602717592146 H 0.0 **** 0.06
35934 H 43.871196287206544 43.25548454808603 19.77055919045239 H 0.0 **** 0.06
35935 H 43.87186346149289 42.012026469147145 21.04392350180365 H 0.0 **** 0.06
35936 C 108.85218989709679 104.27442068461136 81.39836411971513 C 0.0 **** -0.24
35937 H 109.52775431177534 104.62227016174195 80.61673055443407 H 0.0 **** 0.06
35938 H 109.16633853237292 103.2875664708429 81.73772960000437 H 0.0 **** 0.06
35939 H 107.8383435932625 104.21794758337168 81.00258767651385 H 0.0 **** 0.06
35940 H 108.87695270777138 104.97198265326404 82.23589841123332 H 0.0 **** 0.06
35941 C 109.6860193969973 0.10316019699590129 19.526079906069924 C 0.0 **** -0.24
35942 H 110.40649670918955 0.5589803747599831 20.203736048331677 H 0.0 **** 0.06
35943 H 109.74067700542827 0.5940529410559208 18.554227327662232 H 0.0 **** 0.06
35944 H 108.68184861865748 0.21594422436210436 19.934321678365023 H 0.0 **** 0.06
35945 H 109.91591484473479 -0.9565078028003171 19.411553006271618 H 0.0 **** 0.06
35946 C 43.18586607787628 85.00282769941771 55.225611184889566 C 0.0 **** -0.24
35947 H 44.0503216026636 85.1329367582037 55.87677693935064 H 0.0 **** 0.06
35948 H 43.50804552646716 85.03776508451335 54.18489780634871 H 0.0 **** 0.06
35949 H 42.46897727560193 85.80244893336868 55.41205388519338 H 0.0 **** 0.06
35950 H 42.719530129074805 84.0402110513565 55.43049508058914 H 0.0 **** 0.06
35951 C 55.069649214098604 30.19083310880682 72.32140663986189 C 0.0 **** -0.24
35952 H 54.727596106349914 30.015762202960083 71.30155057949696 H 0.0 **** 0.06
35953 H 54.20821302828984 30.363039089173505 72.96837455010046 H 0.0 **** 0.06
35954 H 55.72002672146302 31.065214818668615 72.34163702454083 H 0.0 **** 0.06
35955 H 55.620066485528746 29.319155352567776 72.67490946930087 H 0.0 **** 0.06
35956 C 71.23664377860422 65.74672201078465 51.98385090281076 C 0.0 **** -0.24
35957 H 70.26491186907646 65.95993640092752 52.4278725288319 H 0.0 **** 0.06
35958 H 71.91928209403284 66.57176634225323 52.19038275605112 H 0.0 **** 0.06
35959 H 71.12581085031388 65.62829491294349 50.90548885807124 H 0.0 **** 0.06
35960 H 71.63707287007799 64.82742781364345 52.410451697342864 H 0.0 **** 0.06
35961 C 7.877743114211995 20.686774356700077 9.714830051995811 C 0.0 **** -0.24
35962 H 8.543202003676925 19.94288375919998 9.276332821144404 H 0.0 **** 0.06
35963 H 7.018567503331269 20.835579214724966 9.060289774578614 H 0.0 **** 0.06
35964 H 8.413357141143592 21.62743784049639 9.833498701287755 H 0.0 **** 0.06
35965 H 7.535040410025374 20.33755099896324 10.689447168647444 H 0.0 **** 0.06
35966 C 23.75943262737394 75.91081316255827 24.142565121310213 C 0.0 **** -0.24
35967 H 24.504422821448884 76.63396213764548 24.475501698515743 H 0.0 **** 0.06
35968 H 22.891091119146893 76.44035490730539 23.750487166226137 H 0.0 **** 0.06
35969 H 23.456973378403518 75.288336654375 24.983875336006662 H 0.0 **** 0.06
35970 H 24.18640386018285 75.2834906871727 23.35985658469687 H 0.0 **** 0.06
35971 C 18.695816636219632 58.04587265656582 106.11094917354514 C 0.0 **** -0.24
35972 H 18.404359368869706 57.070907826375446 105.72083537986529 H 0.0 **** 0.06
35973 H 18.97769250995819 57.94893584658591 107.15949903524164 H 0.0 **** 0.06
35974 H 17.858630579879957 58.738274494926245 106.02191118950363 H 0.0 **** 0.06
35975 H 19.542876032242873 58.426017186417056 105.54032666849567 H 0.0 **** 0.06
35976 C 104.27004353621356 7.245054219853714 4.401586719333418 C 0.0 **** -0.24
35977 H 103.42206977569845 7.258897471737441 5.085854491641923 H 0.0 **** 0.06
35978 H 103.94514792838629 7.570377091489306 3.4127851794771527 H 0.0 **** 0.06
35979 H 104.66919810773788 6.23210820251731 4.338352069747243 H 0.0 **** 0.06
35980 H 105.0443436981771 7.918408595452391 4.770045309456114 H 0.0 **** 0.06
35981 C 99.03006574779715 59.7186082685179 109.05809305263843 C 0.0 **** -0.24
35982 H 98.94654937873426 60.78667192236041 109.25569752250848 H 0.0 **** 0.06
35983 H 98.61941782996857 59.16004796405714 109.89962574218247 H 0.0 **** 0.06
35984 H 100.07901611133695 59.45517099309721 108.92411743958088 H 0.0 **** 0.06
35985 H 98.4752796711488 59.47254219455671 108.15293150628166 H 0.0 **** 0.06
35986 C 66.90162868215737 73.54462355509298 90.92796926336563 C 0.0 **** -0.24
35987 H 66.21855849264715 73.98083614391595 91.65561075944319 H 0.0 **** 0.06
35988 H 67.91461747465279 73.55141763520805 91.3314307242433 H 0.0 **** 0.06
35989 H 66.87315518572846 74.12722213046624 90.00739949951766 H 0.0 **** 0.06
35990 H 66.60124161974399 72.51822877330716 90.71794330481148 H 0.0 **** 0.06
35991 C 26.83789440822693 63.23183497190138 98.6903058152716 C 0.0 **** -0.24
35992 H 27.672473969087548 62.5434927786776 98.56421684014586 H 0.0 **** 0.06
35993 H 25.900315233772517 62.67683752629233 98.65756923414186 H 0.0 **** 0.06
35994 H 26.850912404426367 63.970249228887496 97.88881941233142 H 0.0 **** 0.06
35995 H 26.92762072424017 63.73779775434497 99.65198114961507 H 0.0 **** 0.06
35996 C 57.58518317806988 34.87448898585609 20.489899400647843 C 0.0 **** -0.24
35997 H 57.76095123733205 35.60922339209614 19.7040702178613 H 0.0 **** 0.06
35998 H 58.536944607161104 34.589169798557066 20.939388850507427 H 0.0 **** 0.06
35999 H 57.10537043579927 33.99462132438015 20.062813800193553 H 0.0 **** 0.06
36000 H 56.93756724021432 35.30764369509569 21.252025463418704 H 0.0 **** 0.06
36001 C 48.296443767347654 61.25236533075167 94.60933371301202 C 0.0 **** -0.24
36002 H 47.47135086960077 61.82541239039983 94.1837758974833 H 0.0 **** 0.06
36003 H 48.34579812093861 61.430341345686315 95.68346323338943 H 0.0 **** 0.06
36004 H 49.23125506251162 61.56367590757867 94.14511930373918 H 0.0 **** 0.06
36005 H 48.133262507980504 60.19080857113505 94.42310083957616 H 0.0 **** 0.06
36006 C 30.25767517591018 99.00105059792175 90.73275924881611 C 0.0 **** -0.24
36007 H 31.151631588442086 99.15691326426672 90.12942080331949 H 0.0 **** 0.06
36008 H 29.562263420248314 98.35920507458377 90.19204272511084 H 0.0 **** 0.06
36009 H 29.783681523649733 99.96232817365576 90.9337195717639 H 0.0 **** 0.06
36010 H 30.533079805162515 98.52766474559081 91.67469004586007 H 0.0 **** 0.06
36011 C 29.43779663942624 80.53774257326444 66.59112144079891 C 0.0 **** -0.24
36012 H 29.86500649121666 81.41323933098448 66.10080440210479 H 0.0 **** 0.06
36013 H 29.306829238310655 80.74521708424322 67.65274301751221 H 0.0 **** 0.06
36014 H 30.10844082546157 79.68844595055117 66.46567781716408 H 0.0 **** 0.06
36015 H 28.470519744132446 80.30751651747471 66.143862055833 H 0.0 **** 0.06
36016 C 106.20767383843446 57.16937099971031 88.94754480537216 C 0.0 **** -0.24
36017 H 105.76080274335902 57.95477655131411 88.33869272980434 H 0.0 **** 0.06
36018 H 107.28726609718677 57.315862026580206 88.99212660827887 H 0.0 **** 0.06
36019 H 105.99044836464788 56.19792913534933 88.50350499940976 H 0.0 **** 0.06
36020 H 105.7928956671606 57.21036350523528 89.9546754986464 H 0.0 **** 0.06
36021 C 97.9982516701548 114.11313894876105 29.566663977778546 C 0.0 **** -0.24
36022 H 98.23384152816611 113.13516409773985 29.98558416773244 H 0.0 **** 0.06
36023 H 97.98906564772749 114.05019142948623 28.47816187610323 H 0.0 **** 0.06
36024 H 98.75105266930683 114.83484491566128 29.88383539954998 H 0.0 **** 0.06
36025 H 97.01805795850308 114.43276331615579 29.920764413073528 H 0.0 **** 0.06
36026 C 66.86230783811759 24.7170046259603 64.87832322457413 C 0.0 **** -0.24
36027 H 66.24539678721631 25.338034550108546 64.22924533106405 H 0.0 **** 0.06
36028 H 67.02663770340078 23.74867771404365 64.4053747551238 H 0.0 **** 0.06
36029 H 66.35648363947385 24.574562096259513 65.83308997022812 H 0.0 **** 0.06
36030 H 67.82175458632067 25.20734391147181 65.04483721921349 H 0.0 **** 0.06
36031 C 14.688043188026057 111.60199443688464 55.18774026522851 C 0.0 **** -0.24
36032 H 13.7120793253915 111.4833337896464 54.71630969210992 H 0.0 **** 0.06
36033 H 15.46062036510466 111.2142250160415 54.52372525115149 H 0.0 **** 0.06
36034 H 14.70636463815103 111.0502199844816 56.12783273862877 H 0.0 **** 0.06
36035 H 14.871048271681786 112.65820126384364 55.38221844645511 H 0.0 **** 0.06
36036 C 98.16545984518729 20.235062893892376 64.34072585822278 C 0.0 **** -0.24
36037 H 97.65819817429679 19.8230210520521 65.21291027373579 H 0.0 **** 0.06
36038 H 98.05332160991134 19.552513728217207 63.49782061192468 H 0.0 **** 0.06
36039 H 99.22450195141613 20.366328360224372 64.5648949968961 H 0.0 **** 0.06
36040 H 97.72517419395768 21.200484647370246 64.08771589828041 H 0.0 **** 0.06
36041 C 105.35327629434826 24.502531419362896 79.48469574063247 C 0.0 **** -0.24
36042 H 105.73537254888731 24.572146084910145 78.46591910096645 H 0.0 **** 0.06
36043 H 104.78496686069823 23.579586617785537 79.59616674717573 H 0.0 **** 0.06
36044 H 104.70582295602412 25.355355742559 79.68842938407957 H 0.0 **** 0.06
36045 H 106.18767125306945 24.503600615496282 80.18559332804854 H 0.0 **** 0.06
36046 C 22.24676606409828 18.26201667873172 5.512555510364143 C 0.0 **** -0.24
36047 H 22.27319269361948 18.755142010272397 6.484050528561502 H 0.0 **** 0.06
36048 H 21.29870502423831 18.478703675500963 5.020108991281965 H 0.0 **** 0.06
36049 H 22.34814019244234 17.185130711031118 5.649422183998761 H 0.0 **** 0.06
36050 H 23.06844045957432 18.628918708459846 4.897625732850498 H 0.0 **** 0.06
36051 C 11.64983146116699 29.94209980202472 114.09115158490019 C 0.0 **** -0.24
36052 H 10.900106240055923 29.446544115413438 114.70739031238364 H 0.0 **** 0.06
36053 H 11.747882583825735 30.982150330440525 114.4041907176327 H 0.0 **** 0.06
36054 H 11.343391876366283 29.904981463861674 113.0458355770102 H 0.0 **** 0.06
36055 H 12.608276001986077 29.43608985524213 114.20703751776855 H 0.0 **** 0.06
36056 C 46.5409331407688 68.52066023123001 69.09176429947445 C 0.0 **** -0.24
36057 H 47.2829506025206 67.93554882191006 68.54868487006507 H 0.0 **** 0.06
36058 H 46.94776123674984 68.81423538156776 70.06016202996756 H 0.0 **** 0.06
36059 H 45.64353001495658 67.91976784137307 69.24182284237168 H 0.0 **** 0.06
36060 H 46.28990277979591 69.41156533429069 68.51761596403799 H 0.0 **** 0.06
36061 C 36.357333043932044 36.11222599527623 26.105880417382394 C 0.0 **** -0.24
36062 H 36.97969591951008 36.97522811786696 26.337708400375732 H 0.0 **** 0.06
36063 H 36.51463698812222 35.33823286703088 26.85708855225431 H 0.0 **** 0.06
36064 H 36.625476625159706 35.72474949117298 25.122849619792987 H 0.0 **** 0.06
36065 H 35.308510725987304 36.41031405445171 26.10391746444043 H 0.0 **** 0.06
36066 C 70.17055531150726 103.47542801570386 110.88072108283913 C 0.0 **** -0.24
36067 H 69.12149137162163 103.7705425721717 110.86381569976376 H 0.0 **** 0.06
36068 H 70.6390920961868 103.8525515639228 111.79020044508171 H 0.0 **** 0.06
36069 H 70.67908998624529 103.8902735747049 110.01059052626263 H 0.0 **** 0.06
36070 H 70.24186535841648 102.38717136548503 110.85867578178704 H 0.0 **** 0.06
36071 C 22.507170696130206 25.443359638704976 26.159179505409497 C 0.0 **** -0.24
36072 H 22.222130936329616 26.211928216030827 25.44100946336303 H 0.0 **** 0.06
36073 H 23.588616597785837 25.452129144768747 26.291112630442456 H 0.0 **** 0.06
36074 H 22.193291905813503 24.46644688680749 25.788813139479714 H 0.0 **** 0.06
36075 H 22.022572678494758 25.642538100853557 27.115037371190567 H 0.0 **** 0.06
36076 C 45.034402305765525 6.3136956536964135 40.174312720847865 C 0.0 **** -0.24
36077 H 45.93219254679832 6.180478999630964 40.77746654032765 H 0.0 **** 0.06
36078 H 44.20824706413123 5.764804809713198 40.62687756940849 H 0.0 **** 0.06
36079 H 45.214459390211914 5.936703587204676 39.167754247838616 H 0.0 **** 0.06
36080 H 44.7841220749998 7.373808866520207 40.126559463039996 H 0.0 **** 0.06
36081 C 51.431805634692864 103.16482561529006 47.183433659974604 C 0.0 **** -0.24
36082 H 52.11427886188545 103.3463905884854 48.01340714132761 H 0.0 **** 0.06
36083 H 51.44072401317169 104.02397846942955 46.51172653300082 H 0.0 **** 0.06
36084 H 50.42261284351139 103.01579820537063 47.56854318443767 H 0.0 **** 0.06
36085 H 51.74909656491229 102.2750689378679 46.64003505174909 H 0.0 **** 0.06
36086 C 27.137179560166274 86.46569070036989 25.389570286873997 C 0.0 **** -0.24
36087 H 27.62684280300178 87.42868966870206 25.2424938182958 H 0.0 **** 0.06
36088 H 27.46346450158731 86.0347205622916 26.336515626747712 H 0.0 **** 0.06
36089 H 27.404419291711676 85.79393297068731 24.57306976423005 H 0.0 **** 0.06
36090 H 26.057435386249225 86.6057548197376 25.406031786032948 H 0.0 **** 0.06
36091 C 58.48884631380244 90.16025531626553 66.58042868196026 C 0.0 **** -0.24
36092 H 58.1692632748896 89.42133715860484 65.84638295689507 H 0.0 **** 0.06
36093 H 59.13649502566736 90.89365667018501 66.09950957956403 H 0.0 **** 0.06
36094 H 59.03536192509898 89.66313944811571 67.38203586132661 H 0.0 **** 0.06
36095 H 57.61437455522662 90.66303625738038 66.99476922233129 H 0.0 **** 0.06
36096 C 15.754143778574758 45.844848735253606 70.5587919376863 C 0.0 **** -0.24
36097 H 16.809783252394396 46.09859718169844 70.4600923721784 H 0.0 **** 0.06
36098 H 15.432296830289829 46.02213441053624 71.58499848906399 H 0.0 **** 0.06
36099 H 15.608649539811353 44.79418411157559 70.3078739735318 H 0.0 **** 0.06
36100 H 15.167640117814614 46.46485922030581 69.8805795640389 H 0.0 **** 0.06
36101 C 21.36182503587683 57.23033221540996 28.925170392317938 C 0.0 **** -0.24
36102 H 22.057168763968956 56.45955088966468 29.257450089150808 H 0.0 **** 0.06
36103 H 20.496731405547397 56.76040384152179 28.45757026928304 H 0.0 **** 0.06
36104 H 21.857652494626816 57.87962284386575 28.20297484018664 H 0.0 **** 0.06
36105 H 21.037622649760465 57.820387080526245 29.78189705513914 H 0.0 **** 0.06
36106 C 54.89130577365529 5.734552966422228 99.18388570966655 C 0.0 **** -0.24
36107 H 55.142742731886585 6.231454494408979 98.24689164302973 H 0.0 **** 0.06
36108 H 55.77954612457711 5.245075642714511 99.58367890526769 H 0.0 **** 0.06
36109 H 54.11573859970753 4.9901370806918806 99.00447253440888 H 0.0 **** 0.06
36110 H 54.52942021778165 6.471580340499088 99.9007239370086 H 0.0 **** 0.06
36111 C 36.36018010795095 56.97694315196145 88.9836621717231 C 0.0 **** -0.24
36112 H 35.535103204827195 56.41166699205678 89.41718325348074 H 0.0 **** 0.06
36113 H 37.03409995092005 57.30152729226347 89.77656679521726 H 0.0 **** 0.06
36114 H 35.96676391911099 57.848436344799154 88.46020263958098 H 0.0 **** 0.06
36115 H 36.90314603551789 56.34469415881853 88.28012976575232 H 0.0 **** 0.06
36116 C 104.819364248124 1.5129616166573214 27.787097987731556 C 0.0 **** -0.24
36117 H 103.95679042212019 2.1213302035685047 27.515602873152773 H 0.0 **** 0.06
36118 H 104.85830268278443 0.6305221463488806 27.14736209545572 H 0.0 **** 0.06
36119 H 104.73238854756545 1.2035580386444167 28.828825989531367 H 0.0 **** 0.06
36120 H 105.7306324140843 2.09717086976093 27.656432494386934 H 0.0 **** 0.06
36121 C 25.748687752983926 112.63334257291874 15.372309027268347 C 0.0 **** -0.24
36122 H 26.578490459783325 112.25886141226496 15.971501706911017 H 0.0 **** 0.06
36123 H 26.060968148765113 112.71681306814429 14.331173971359082 H 0.0 **** 0.06
36124 H 25.447511037863464 113.61446854437287 15.741375483957913 H 0.0 **** 0.06
36125 H 24.908260120366748 111.9440460876605 15.446634255969254 H 0.0 **** 0.06
36126 C 113.53337055456402 73.82225951113742 63.94840390361898 C 0.0 **** -0.24
36127 H 112.53184874657623 73.65441109376582 64.34319178679436 H 0.0 **** 0.06
36128 H 113.46384905764631 74.20789214717043 62.931536284363915 H 0.0 **** 0.06
36129 H 114.08412460213245 72.88130034661958 63.943996983379776 H 0.0 **** 0.06
36130 H 114.05465344968516 74.5450874771817 64.57686352047352 H 0.0 **** 0.06
36131 C 90.88105874830295 15.968688712862942 89.44135754700405 C 0.0 **** -0.24
36132 H 89.81164213812227 16.146111971003492 89.3358466428136 H 0.0 **** 0.06
36133 H 91.42040558618558 16.907907647488244 89.31399035868576 H 0.0 **** 0.06
36134 H 91.20772625358906 15.256092710926168 88.68401163414488 H 0.0 **** 0.06
36135 H 91.08612259259762 15.563526484172428 90.43257850008139 H 0.0 **** 0.06
36136 C 110.08571847251564 83.84355418509313 90.52172985987326 C 0.0 **** -0.24
36137 H 110.91878989968654 83.91973430912388 89.82259312893044 H 0.0 **** 0.06
36138 H 110.10811505007119 82.86766355866567 91.00791654980026 H 0.0 **** 0.06
36139 H 109.14666055813342 83.95887637838918 89.98013536280037 H 0.0 **** 0.06
36140 H 110.17019303930552 84.62723231819798 91.27434740130386 H 0.0 **** 0.06
36141 C 67.78494157576765 108.21660523333321 110.4483917310056 C 0.0 **** -0.24
36142 H 68.29337078607546 107.28724938434675 110.19208725120735 H 0.0 **** 0.06
36143 H 68.50123536578934 108.91360214895656 110.8844824490518 H 0.0 **** 0.06
36144 H 66.99416677476356 108.0103497697994 111.16907432652708 H 0.0 **** 0.06
36145 H 67.35246456690044 108.6544767356969 109.54943418498496 H 0.0 **** 0.06
36146 C 75.41298711656782 58.00157958643548 93.77466832003694 C 0.0 **** -0.24
36147 H 74.63746783069143 57.39912159308447 94.24787733258205 H 0.0 **** 0.06
36148 H 74.99457317131828 58.96484690898333 93.48121569218591 H 0.0 **** 0.06
36149 H 75.78742727760266 57.483348383921935 92.89187981781589 H 0.0 **** 0.06
36150 H 76.23048584156777 58.15915230473547 94.47769263392706 H 0.0 **** 0.06
36151 C 61.62256860055747 54.98644671615844 63.91935339146529 C 0.0 **** -0.24
36152 H 61.59744234044925 55.630324097123726 63.040242397206825 H 0.0 **** 0.06
36153 H 60.72508925421086 55.15336307684623 64.51646846113148 H 0.0 **** 0.06
36154 H 62.504690252233885 55.22030756467056 64.51624710619538 H 0.0 **** 0.06
36155 H 61.66179252729549 53.94345782393604 63.60573549228894 H 0.0 **** 0.06
36156 C 6.531560100940766 86.96897926753822 113.93553792492833 C 0.0 **** -0.24
36157 H 6.872513711872159 88.0028765702742 113.88662445723001 H 0.0 **** 0.06
36158 H 6.96510331027082 86.48518404028056 114.81083902835971 H 0.0 **** 0.06
36159 H 6.846072729562934 86.4404946296118 113.03476024202305 H 0.0 **** 0.06
36160 H 5.444371177392753 86.94768960783507 114.00867157507138 H 0.0 **** 0.06
36161 C 23.182240166303217 45.08856078766448 84.0748175984553 C 0.0 **** -0.24
36162 H 22.12292539112542 45.28845806195943 83.91275941095682 H 0.0 **** 0.06
36163 H 23.651949256683594 45.9621058747135 84.52772923131221 H 0.0 **** 0.06
36164 H 23.661413405168105 44.87221441898788 83.11975433564038 H 0.0 **** 0.06
36165 H 23.29327950504667 44.23127799770634 84.73825485863267 H 0.0 **** 0.06
36166 C 108.18366523812861 18.038663799140636 80.70728896313524 C 0.0 **** -0.24
36167 H 108.20725995375153 16.99575379972731 81.02408322382003 H 0.0 **** 0.06
36168 H 108.9908261754449 18.220724982447962 79.99779442669444 H 0.0 **** 0.06
36169 H 108.3099500446678 18.683740231238914 81.57665314749318 H 0.0 **** 0.06
36170 H 107.225916701763 18.252051347480574 80.23303583621228 H 0.0 **** 0.06
36171 C 44.75991799807833 65.8662464401854 52.77371150503123 C 0.0 **** -0.24
36172 H 45.806740238650626 66.06337843262567 52.54574079026262 H 0.0 **** 0.06
36173 H 44.49651225537107 64.86471015318233 52.43076668957496 H 0.0 **** 0.06
36174 H 44.132829283237925 66.59992521730854 52.26735121848946 H 0.0 **** 0.06
36175 H 44.60309629873968 65.93461105874596 53.85056006972885 H 0.0 **** 0.06
36176 C 57.47153228575431 49.860877105302016 17.951742191262504 C 0.0 **** -0.24
36177 H 57.95885160175769 50.81878024044725 18.134769642573143 H 0.0 **** 0.06
36178 H 56.43482525113333 49.910623874971485 18.28343676366048 H 0.0 **** 0.06
36179 H 57.99346615421359 49.07767653642524 18.501710799721298 H 0.0 **** 0.06
36180 H 57.501676890618114 49.63736594276264 16.88462659190773 H 0.0 **** 0.06
36181 C 69.58111976388398 92.79642618623683 89.54478596985814 C 0.0 **** -0.24
36182 H 69.36033622174591 93.8254349459292 89.82876688909096 H 0.0 **** 0.06
36183 H 69.54016668160011 92.15982834114033 90.42842818432325 H 0.0 **** 0.06
36184 H 70.57787341832903 92.74706215817717 89.10675071591976 H 0.0 **** 0.06
36185 H 68.84644373458224 92.45534898701011 88.8152634954443 H 0.0 **** 0.06
36186 C 50.477305643253764 83.73950900666296 23.633616625364738 C 0.0 **** -0.24
36187 H 50.94156379643048 84.54572871802623 24.202242813213758 H 0.0 **** 0.06
36188 H 50.995744045608156 82.80273788905595 23.841323456093818 H 0.0 **** 0.06
36189 H 50.54145779276199 83.96190905537168 22.568925956837887 H 0.0 **** 0.06
36190 H 49.430602506651454 83.64748210650214 23.923691017754933 H 0.0 **** 0.06
36191 C 22.73686031997329 70.3668041370077 99.13223368476599 C 0.0 **** -0.24
36192 H 23.209159333402567 70.9127928799967 99.94957238548443 H 0.0 **** 0.06
36193 H 22.69958106497984 71.00057537987558 98.24576210167416 H 0.0 **** 0.06
36194 H 21.724705294098555 70.08419653160539 99.42088862265604 H 0.0 **** 0.06
36195 H 23.316217707124878 69.46985865931833 98.91285184172722 H 0.0 **** 0.06
36196 C 85.76174937942083 109.70347161426321 16.652834115830217 C 0.0 **** -0.24
36197 H 85.2105743446601 110.22732256365776 15.872592002871528 H 0.0 **** 0.06
36198 H 86.63779631421839 109.22316775115479 16.21728675104015 H 0.0 **** 0.06
36199 H 85.12038807618735 108.94877066753287 17.107080377018463 H 0.0 **** 0.06
36200 H 86.07900870422462 110.41689629353834 17.413876389549813 H 0.0 **** 0.06
36201 C 115.2144632703548 63.795540948565645 87.31800270468366 C 0.0 **** -0.24
36202 H 114.4033086968883 64.39024849881798 86.89789349994086 H 0.0 **** 0.06
36203 H 115.21128239278617 62.80505411844484 86.86425805131928 H 0.0 **** 0.06
36204 H 115.07537056477365 63.70318836594515 88.39489255209052 H 0.0 **** 0.06
36205 H 116.16638470691478 64.2864378521632 87.1152581102355 H 0.0 **** 0.06
36206 C 97.2024000935567 8.96840152364237 18.252184681080564 C 0.0 **** -0.24
36207 H 96.73936682224605 9.171111652950003 19.218531625171977 H 0.0 **** 0.06
36208 H 96.55371144652688 9.332806726860326 17.45565757051895 H 0.0 **** 0.06
36209 H 97.3495608083503 7.893628477445787 18.13968910846029 H 0.0 **** 0.06
36210 H 98.16616943395594 9.474871390195773 18.198319143642095 H 0.0 **** 0.06
36211 C 34.96895703559573 25.656858376383553 61.19438057247403 C 0.0 **** -0.24
36212 H 33.989220042646004 25.993269288376695 61.53385176146989 H 0.0 **** 0.06
36213 H 35.62505965763725 26.51837962344797 61.066830217659174 H 0.0 **** 0.06
36214 H 34.86400067460457 25.135729316588936 60.24225963602346 H 0.0 **** 0.06
36215 H 35.39712847898213 24.980032435893463 61.93367307776052 H 0.0 **** 0.06
36216 C 8.146662429678823 60.192897691248845 2.174210105301267 C 0.0 **** -0.24
36217 H 8.526017763584282 60.81609077913765 2.9830959892213382 H 0.0 **** 0.06
36218 H 7.366928256213784 60.7326349808024 1.6355572415161514 H 0.0 **** 0.06
36219 H 7.732185966599182 59.27337571967416 2.587936078585125 H 0.0 **** 0.06
36220 H 8.959893653899186 59.94919098915784 1.4897280829744197 H 0.0 **** 0.06
36221 C 73.08856917516985 89.90352886262247 111.91566674725443 C 0.0 **** -0.24
36222 H 72.59814162367607 89.23643011736095 111.2068623836274 H 0.0 **** 0.06
36223 H 74.07535294445 89.50933883929133 112.16107180698968 H 0.0 **** 0.06
36224 H 72.48956557912436 89.97305487688942 112.82309295373221 H 0.0 **** 0.06
36225 H 73.1923388515163 90.89266644192145 111.47071820762382 H 0.0 **** 0.06
36226 C 101.96662917188127 61.97507427533657 27.474079238627525 C 0.0 **** -0.24
36227 H 101.76641274232901 61.047859429708495 28.011270621448915 H 0.0 **** 0.06
36228 H 101.05315151821145 62.31457539503167 26.984093304164162 H 0.0 **** 0.06
36229 H 102.73805500434025 61.800671102381514 26.72433978710319 H 0.0 **** 0.06
36230 H 102.3065682332429 62.73530227593372 28.176699565242558 H 0.0 **** 0.06
36231 C 1.7411003652547805 66.89150196129285 58.10152549593374 C 0.0 **** -0.24
36232 H 2.368398649303117 66.3646200904227 57.38244975905121 H 0.0 **** 0.06
36233 H 1.0184302656680586 66.1967631276897 58.52928994357234 H 0.0 **** 0.06
36234 H 1.2136849542100947 67.70178658428495 57.598672297778364 H 0.0 **** 0.06
36235 H 2.365828168572392 67.30199902754669 58.89496162923257 H 0.0 **** 0.06
36236 C 51.30976407969966 76.20857057209957 46.83119627431018 C 0.0 **** -0.24
36237 H 51.18413879329762 77.23365429504653 46.48275661523559 H 0.0 **** 0.06
36238 H 51.38338796597933 76.20200547517115 47.91882120664542 H 0.0 **** 0.06
36239 H 52.219771235746975 75.78797983480126 46.403107532026226 H 0.0 **** 0.06
36240 H 50.45221555683763 75.61221875888744 46.5206539044152 H 0.0 **** 0.06
36241 C 43.557537582378316 29.301191955207535 36.647989713745375 C 0.0 **** -0.24
36242 H 43.85488512752055 30.122327658487464 35.995620832253366 H 0.0 **** 0.06
36243 H 44.272111134810615 28.482988035671674 36.54949284362016 H 0.0 **** 0.06
36244 H 42.56461888236123 28.953657053496805 36.36301166414057 H 0.0 **** 0.06
36245 H 43.53953426880801 29.64661732630308 37.681753593778865 H 0.0 **** 0.06
36246 C 97.52918920416235 85.90379904725012 108.91782859076596 C 0.0 **** -0.24
36247 H 97.16115550478526 86.8150556439623 108.44632761734907 H 0.0 **** 0.06
36248 H 97.46391565136408 86.00307426809297 110.00163041045236 H 0.0 **** 0.06
36249 H 98.56711611601142 85.73946649843629 108.62958381240736 H 0.0 **** 0.06
36250 H 96.92391933625463 85.0570524368851 108.59324554727613 H 0.0 **** 0.06
36251 C 38.236782389777616 113.57512827851272 71.97663195514724 C 0.0 **** -0.24
36252 H 37.369650194561885 114.20706572224958 72.1718867897183 H 0.0 **** 0.06
36253 H 39.01025101992484 114.16361905316484 71.48321383964402 H 0.0 **** 0.06
36254 H 37.94332829521784 112.74667898137912 71.33201889056188 H 0.0 **** 0.06
36255 H 38.62154389658295 113.18558146196865 72.91816969267428 H 0.0 **** 0.06
36256 C 75.05209708574124 8.667401355659365 0.7303940514200065 C 0.0 **** -0.24
36257 H 74.69531162391493 9.673880586296626 0.5117133538010137 H 0.0 **** 0.06
36258 H 75.54477132313087 8.257079302449142 -0.15129380901350942 H 0.0 **** 0.06
36259 H 74.20700484492895 8.033839206356674 1.001743871283196 H 0.0 **** 0.06
36260 H 75.75914476250092 8.70370287061338 1.559044958147382 H 0.0 **** 0.06
36261 C 27.123645035648366 38.80555481431394 103.7200288796918 C 0.0 **** -0.24
36262 H 26.713188244705258 39.284778582671485 102.83226356620514 H 0.0 **** 0.06
36263 H 27.40550878955871 37.77963671550318 103.48275595354795 H 0.0 **** 0.06
36264 H 26.373658299694235 38.80294746980408 104.51095090396495 H 0.0 **** 0.06
36265 H 28.003444702265114 39.35590824394234 104.05599063367742 H 0.0 **** 0.06
36266 C 30.901829170025337 99.63736371216567 53.681809835957665 C 0.0 **** -0.24
36267 H 30.207485876466023 98.8969486878392 53.28311872292188 H 0.0 **** 0.06
36268 H 31.366151527114766 100.1808317773336 52.85936243735227 H 0.0 **** 0.06
36269 H 31.67213066070633 99.13427005971363 54.26595101830062 H 0.0 **** 0.06
36270 H 30.36003451660747 100.336448407452 54.32014657254394 H 0.0 **** 0.06
36271 C 97.7996508072709 36.171392982352145 64.99953182929858 C 0.0 **** -0.24
36272 H 98.57789153469997 36.79370849018369 64.55916577449605 H 0.0 **** 0.06
36273 H 96.974919539197 36.802072169520386 65.33209261626996 H 0.0 **** 0.06
36274 H 98.20815545844954 35.62841975899052 65.85207661230625 H 0.0 **** 0.06
36275 H 97.43817327062868 35.461983382829146 64.25594895352016 H 0.0 **** 0.06
36276 C 78.07292532413494 15.69310546092953 50.86818063110388 C 0.0 **** -0.24
36277 H 77.18666864741718 16.23333319118925 51.2048151505532 H 0.0 **** 0.06
36278 H 77.82709520930536 15.11099503487927 49.9802298778915 H 0.0 **** 0.06
36279 H 78.41147978252073 15.024681829783791 51.66004444663682 H 0.0 **** 0.06
36280 H 78.86346864512588 16.404855181033344 50.629360248939406 H 0.0 **** 0.06
36281 C 48.22780157429815 5.476792892272101 69.81800840884674 C 0.0 **** -0.24
36282 H 49.10835716896148 4.878545148144497 70.0542584708104 H 0.0 **** 0.06
36283 H 47.73587091400597 5.064079996625708 68.93700678144626 H 0.0 **** 0.06
36284 H 48.5292277540203 6.505051373933014 69.61945292922937 H 0.0 **** 0.06
36285 H 47.53906506724642 5.456708153914732 70.66318782021051 H 0.0 **** 0.06
36286 C 15.046926203499538 66.45001127144542 114.98959465545262 C 0.0 **** -0.24
36287 H 14.12661980456005 66.94584468288434 114.67969958162995 H 0.0 **** 0.06
36288 H 15.045786543402897 66.32739785363506 116.07281126427384 H 0.0 **** 0.06
36289 H 15.902992785955036 67.05550185817532 114.69236630303175 H 0.0 **** 0.06
36290 H 15.110513588864933 65.47211815833117 114.51315450914525 H 0.0 **** 0.06
36291 C 100.50094310993312 98.58117525810172 64.73060332257728 C 0.0 **** -0.24
36292 H 100.46636176412282 97.55876923441596 65.10663336971994 H 0.0 **** 0.06
36293 H 100.60635704732627 98.56636478710902 63.64631367304838 H 0.0 **** 0.06
36294 H 101.35167627553075 99.10137926446652 65.17276678466789 H 0.0 **** 0.06
36295 H 99.57957685908897 99.09850748308912 65.0004221986613 H 0.0 **** 0.06
36296 C 70.60163653558709 96.97474846465057 113.61216576919668 C 0.0 **** -0.24
36297 H 71.13893785827446 97.84477639460425 113.99046760753188 H 0.0 **** 0.06
36298 H 69.57477487408518 96.99469147187325 113.97955936797197 H 0.0 **** 0.06
36299 H 71.09385026489414 96.06494161164262 113.95563146285653 H 0.0 **** 0.06
36300 H 70.59851351279089 96.9968923760088 112.5223316277866 H 0.0 **** 0.06
36301 C 67.03798906343101 82.1300543851589 97.81538290073779 C 0.0 **** -0.24
36302 H 67.91048409068878 81.55953231461328 97.49838842307994 H 0.0 **** 0.06
36303 H 66.6414977580103 81.70536207359724 98.73823863353438 H 0.0 **** 0.06
36304 H 66.27353164335614 82.08879775464202 97.03877981008615 H 0.0 **** 0.06
36305 H 67.324779159401 83.16801799872916 97.98619440849332 H 0.0 **** 0.06
36306 C 87.15713560366368 60.650749362600095 52.54447254471666 C 0.0 **** -0.24
36307 H 86.68820018787711 59.823032694825656 52.01174157274451 H 0.0 **** 0.06
36308 H 88.07468172316202 60.93939150812878 52.031006453141394 H 0.0 **** 0.06
36309 H 87.39280241451621 60.34075894395124 53.56263984915581 H 0.0 **** 0.06
36310 H 86.47341400906446 61.49843416091238 52.57161555130494 H 0.0 **** 0.06
36311 C 29.145131173984566 13.410354872506133 107.56364580645715 C 0.0 **** -0.24
36312 H 28.81842684253658 14.066611638491707 106.75589089813568 H 0.0 **** 0.06
36313 H 29.63584133788524 12.533190212335057 107.14220870289415 H 0.0 **** 0.06
36314 H 28.28075476022383 13.0974859065374 108.14893799934524 H 0.0 **** 0.06
36315 H 29.844185806798947 13.945607680186612 108.2055231731403 H 0.0 **** 0.06
36316 C 46.388959518779686 110.42911383447519 94.93046710310338 C 0.0 **** -0.24
36317 H 46.80972693539772 109.88262134233705 95.77481437809884 H 0.0 **** 0.06
36318 H 45.42701478745258 109.99326521255699 94.65887564259698 H 0.0 **** 0.06
36319 H 47.070203438629676 110.36450169222086 94.08182726957082 H 0.0 **** 0.06
36320 H 46.24920846092593 111.47390478528027 95.20682562095716 H 0.0 **** 0.06
36321 C 49.58964263997732 41.28275016335982 23.974876092616967 C 0.0 **** -0.24
36322 H 49.42485291750302 42.35752952498234 24.053395175083722 H 0.0 **** 0.06
36323 H 49.58028279862778 40.99010033998144 22.9241900702238 H 0.0 **** 0.06
36324 H 48.79869504648186 40.75420382198155 24.506366624899385 H 0.0 **** 0.06
36325 H 50.55464932463921 41.030725331669885 24.413951376597254 H 0.0 **** 0.06
36326 C 20.66958406475149 46.098713747636765 68.08994416913488 C 0.0 **** -0.24
36327 H 20.77703206902129 46.59014328039649 69.05668791420301 H 0.0 **** 0.06
36328 H 21.45422403242067 45.350333719067606 67.97490914325724 H 0.0 **** 0.06
36329 H 20.754101492309715 46.839747403768484 67.29502563062896 H 0.0 **** 0.06
36330 H 19.694644016373857 45.61535711804538 68.03445746190837 H 0.0 **** 0.06
36331 C 10.063257246511 38.824346696501564 109.32439383926226 C 0.0 **** -0.24
36332 H 9.540074791815925 39.744859237885805 109.58403851139175 H 0.0 **** 0.06
36333 H 9.38046340266419 37.9800177107441 109.42311428768983 H 0.0 **** 0.06
36334 H 10.911785546571195 38.687326265149395 109.99458908699344 H 0.0 **** 0.06
36335 H 10.418410264554609 38.886032934299976 108.29572397197808 H 0.0 **** 0.06
36336 C 102.64554989851948 40.271083364361516 37.282257799892335 C 0.0 **** -0.24
36337 H 102.76148577325162 39.82167947858179 36.29562381653358 H 0.0 **** 0.06
36338 H 103.46437616039232 39.95014370139768 37.926064317369764 H 0.0 **** 0.06
36339 H 101.69651316339299 39.95374514112032 37.71626283947354 H 0.0 **** 0.06
36340 H 102.65735066228126 41.3571121654682 37.19069507607156 H 0.0 **** 0.06
36341 C 30.021073654472588 101.35114423350743 16.211773003504277 C 0.0 **** -0.24
36342 H 30.013417216967753 100.9373076186734 15.20375606397943 H 0.0 **** 0.06
36343 H 29.070032366124707 101.13505627881199 16.70001894620088 H 0.0 **** 0.06
36344 H 30.167587231993167 102.42978025081561 16.16087472896341 H 0.0 **** 0.06
36345 H 30.833718937146784 100.90036619867027 16.78316120279654 H 0.0 **** 0.06
36346 C 115.80048974576422 43.07853196234433 29.321607579946914 C 0.0 **** -0.24
36347 H 116.69035204626253 43.70665323819634 29.28108228929409 H 0.0 **** 0.06
36348 H 115.73995239155208 42.596475667466024 30.297092322851597 H 0.0 **** 0.06
36349 H 115.85777457286808 42.31833956088607 28.542786358696816 H 0.0 **** 0.06
36350 H 114.91386155698919 43.69348383736191 29.16432041495196 H 0.0 **** 0.06
36351 C 33.61462692752277 7.072301338641211 111.80585474709709 C 0.0 **** -0.24
36352 H 32.74213268966418 6.771580705962805 111.22703061032894 H 0.0 **** 0.06
36353 H 34.09666420000301 7.921889397077081 111.32215881563343 H 0.0 **** 0.06
36354 H 34.31654013289032 6.239440994484468 111.8636487174352 H 0.0 **** 0.06
36355 H 33.30294472848921 7.355456044451358 112.81169729288038 H 0.0 **** 0.06
36356 C 58.41265564225256 25.00210041906439 29.670624662996914 C 0.0 **** -0.24
36357 H 58.93018085165477 24.056417512971677 29.833176438001395 H 0.0 **** 0.06
36358 H 57.39304093758592 24.805608007248168 29.338990608566647 H 0.0 **** 0.06
36359 H 58.939345937116556 25.576998268974904 28.90868347748423 H 0.0 **** 0.06
36360 H 58.39016152941484 25.56822656504852 30.60213461501519 H 0.0 **** 0.06
36361 C 72.36196688432756 49.189751705914546 12.381690860294896 C 0.0 **** -0.24
36362 H 73.3053648607023 49.72777291686779 12.288170835043616 H 0.0 **** 0.06
36363 H 71.76889197789153 49.63386139745401 13.181329721228593 H 0.0 **** 0.06
36364 H 72.56173088809714 48.143587662436175 12.615491509695403 H 0.0 **** 0.06
36365 H 71.81288963665568 49.25328546887788 11.442626352808645 H 0.0 **** 0.06
36366 C 21.076622167676817 3.7471353999994275 37.46137700589563 C 0.0 **** -0.24
36367 H 20.958365969734956 2.8238046321497716 38.02738694402507 H 0.0 **** 0.06
36368 H 21.800150482602902 3.5917685257447847 36.65975890067365 H 0.0 **** 0.06
36369 H 21.4317152913643 4.536689766536059 38.123173268709905 H 0.0 **** 0.06
36370 H 20.116424772836922 4.035956944241523 37.03322204866927 H 0.0 **** 0.06
36371 C 14.486303320366346 2.858782545396817 104.64953597116687 C 0.0 **** -0.24
36372 H 15.376850251133192 2.244280674182553 104.51993993265823 H 0.0 **** 0.06
36373 H 13.917312049718817 2.498441694237469 105.50760418522411 H 0.0 **** 0.06
36374 H 13.869832921570321 2.796623431473593 103.75198924538326 H 0.0 **** 0.06
36375 H 14.780533073740457 3.8946812982746444 104.81653342167436 H 0.0 **** 0.06
36376 C 39.69896936040847 110.75527957617173 42.89590655309257 C 0.0 **** -0.24
36377 H 39.55182271836959 110.13529412358835 43.77988190407922 H 0.0 **** 0.06
36378 H 38.94884041271473 110.50305548920777 42.14606580160779 H 0.0 **** 0.06
36379 H 40.694050912447295 110.57642661804809 42.48909227863771 H 0.0 **** 0.06
36380 H 39.60116339810199 111.80634207384294 43.1685862280456 H 0.0 **** 0.06
36381 C 111.59377984595149 43.031863233853 64.48566162710051 C 0.0 **** -0.24
36382 H 112.22141568270638 42.14449672632107 64.56308545117594 H 0.0 **** 0.06
36383 H 110.55545037260757 42.76067348304624 64.68067359826375 H 0.0 **** 0.06
36384 H 111.67851404275784 43.45068948601156 63.482296633345015 H 0.0 **** 0.06
36385 H 111.91973928573432 43.77159324003309 65.2165908256174 H 0.0 **** 0.06
36386 C 24.244177950288588 38.05633551984104 5.869944565549815 C 0.0 **** -0.24
36387 H 24.694091091641326 39.033518647263406 6.042915098003505 H 0.0 **** 0.06
36388 H 23.450323250070028 37.88831828967753 6.598882543117327 H 0.0 **** 0.06
36389 H 25.003754608803604 37.28151503184256 5.976086413583403 H 0.0 **** 0.06
36390 H 23.826941344518303 38.021468287564346 4.863364977087258 H 0.0 **** 0.06
36391 C 32.80308146404082 109.61181426350927 17.718772918938583 C 0.0 **** -0.24
36392 H 32.65307796008553 110.06264955751485 18.69973318156832 H 0.0 **** 0.06
36393 H 32.48664045218019 110.3133925700724 16.9455907691476 H 0.0 **** 0.06
36394 H 32.21293799087786 108.69882077962252 17.64473179221605 H 0.0 **** 0.06
36395 H 33.858827098715274 109.37518457288805 17.58574619572076 H 0.0 **** 0.06
36396 C 55.970321766081895 36.108325236681594 50.336378768714326 C 0.0 **** -0.24
36397 H 55.82979977384963 37.16411150431304 50.10052798533658 H 0.0 **** 0.06
36398 H 56.49238474001902 35.619433152246756 49.51408179413795 H 0.0 **** 0.06
36399 H 54.998130297399314 35.63663463301458 50.48207818798505 H 0.0 **** 0.06
36400 H 56.55998494072776 36.0148832828562 51.24786680872117 H 0.0 **** 0.06
36401 C 66.21582021825535 17.04736771459605 21.368496204142843 C 0.0 **** -0.24
36402 H 66.46654395612802 17.973203474943432 20.851505622606822 H 0.0 **** 0.06
36403 H 65.89926016805794 16.298845886540335 20.64035163829243 H 0.0 **** 0.06
36404 H 65.40605494898804 17.23260124933506 22.0746231979347 H 0.0 **** 0.06
36405 H 67.09075217558927 16.683030172507927 21.90634353089783 H 0.0 **** 0.06
36406 C 100.68525139514043 3.9408573222656003 43.29880424126759 C 0.0 **** -0.24
36407 H 100.72003612618585 4.854290856200095 43.892640718722305 H 0.0 **** 0.06
36408 H 99.68496114893267 3.815572511013812 42.88510065757464 H 0.0 **** 0.06
36409 H 100.92853313103691 3.087512735727813 43.931821276761355 H 0.0 **** 0.06
36410 H 101.40910374780256 4.008346430398888 42.48669800312115 H 0.0 **** 0.06
36411 C 35.171956912494124 25.929462614844738 22.627023721380635 C 0.0 **** -0.24
36412 H 35.45914935565935 26.772756739483327 21.998541340416136 H 0.0 **** 0.06
36413 H 34.08908334673197 25.80766631876304 22.596477479608776 H 0.0 **** 0.06
36414 H 35.4888434222089 26.11717658417541 23.65204999380673 H 0.0 **** 0.06
36415 H 35.65061555414894 25.022369715276227 22.25847805143571 H 0.0 **** 0.06
36416 C 84.42726167976545 2.2563620551426595 60.27606127511666 C 0.0 **** -0.24
36417 H 83.4926389692661 2.8005387783515516 60.14656787297457 H 0.0 **** 0.06
36418 H 84.43812966874296 1.7821098291019837 61.25730806074466 H 0.0 **** 0.06
36419 H 85.26470932722657 2.949837406089941 60.198582653915196 H 0.0 **** 0.06
36420 H 84.51433223197495 1.4934328768927543 59.5028799865259 H 0.0 **** 0.06
36421 C 70.77263388054584 23.40407330721348 54.26436298194161 C 0.0 **** -0.24
36422 H 70.42522214930703 23.35151879693538 55.29581371932504 H 0.0 **** 0.06
36423 H 71.42590438317599 22.5552193254141 54.0566052932428 H 0.0 **** 0.06
36424 H 71.32453560916626 24.332229338948082 54.11405180911775 H 0.0 **** 0.06
36425 H 69.91607699509663 23.376964046913656 53.590332581690234 H 0.0 **** 0.06
36426 C 28.375558543846154 2.2194761525059192 111.07887985273847 C 0.0 **** -0.24
36427 H 28.86402803302147 1.2988352907015042 110.75754577150178 H 0.0 **** 0.06
36428 H 29.02350685620985 2.7473456581052886 111.77869720805583 H 0.0 **** 0.06
36429 H 27.431394810538734 1.9782134631952175 111.56750724763427 H 0.0 **** 0.06
36430 H 28.185649164349798 2.85077603065443 110.21193502329658 H 0.0 **** 0.06
36431 C 40.91303056152908 85.12932799946822 22.278609155573207 C 0.0 **** -0.24
36432 H 40.70163952399925 84.72990560963632 23.270624352113884 H 0.0 **** 0.06
36433 H 41.95625163774262 84.9381046783256 22.025358225719003 H 0.0 **** 0.06
36434 H 40.72844677223414 86.20366912980785 22.273084089977857 H 0.0 **** 0.06
36435 H 40.26680169477624 84.64574909598943 21.54634538789543 H 0.0 **** 0.06
36436 C 54.62388401898161 84.8362157217209 68.61845415020868 C 0.0 **** -0.24
36437 H 55.19601456545405 84.0949183374382 68.06005786461378 H 0.0 **** 0.06
36438 H 54.27670238761698 84.39624390095777 69.5533890528732 H 0.0 **** 0.06
36439 H 53.766356655893645 85.15480969493625 68.0253198586547 H 0.0 **** 0.06
36440 H 55.257584416858435 85.69711893035165 68.83378431950469 H 0.0 **** 0.06
36441 C 45.09680025300753 104.37804868863427 74.15462913376035 C 0.0 **** -0.24
36442 H 44.94565002708032 105.37040184427778 74.58060264528314 H 0.0 **** 0.06
36443 H 46.147033565241685 104.25190724648587 73.89237190014848 H 0.0 **** 0.06
36444 H 44.48235138257587 104.26940658234015 73.26151437626163 H 0.0 **** 0.06
36445 H 44.8107998772623 103.6223711785511 74.88616165747305 H 0.0 **** 0.06
36446 C 91.42009385024825 84.20461481181414 54.78737661498711 C 0.0 **** -0.24
36447 H 90.75512791680697 84.26124143892093 55.64969287729293 H 0.0 **** 0.06
36448 H 90.87723069040563 84.50183227267695 53.8900835030038 H 0.0 **** 0.06
36449 H 91.78142674198465 83.18233793740714 54.67387723275634 H 0.0 **** 0.06
36450 H 92.26664928062104 84.87487012903809 54.938235153600445 H 0.0 **** 0.06
36451 C 69.30106429992799 61.20248116456757 74.783055889416 C 0.0 **** -0.24
36452 H 69.2514907639046 61.43702297847936 73.7198413559172 H 0.0 **** 0.06
36453 H 69.09457595769646 62.10291680844466 75.36267890723585 H 0.0 **** 0.06
36454 H 70.29669991152838 60.833030244942236 75.0278829294636 H 0.0 **** 0.06
36455 H 68.56026359050372 60.43893304559387 75.02105830967952 H 0.0 **** 0.06
36456 C 87.89105779875952 102.24707231490316 21.86334886431831 C 0.0 **** -0.24
36457 H 87.26401230720552 101.45842436072257 21.446291354991786 H 0.0 **** 0.06
36458 H 88.26978335450859 102.87396795075597 21.05596705852048 H 0.0 **** 0.06
36459 H 88.72778711665502 101.79884042274716 22.399939790608244 H 0.0 **** 0.06
36460 H 87.30156339320028 102.85404682183025 22.54925683962915 H 0.0 **** 0.06
36461 C 19.68929489922556 78.51663723544686 48.58436457216024 C 0.0 **** -0.24
36462 H 19.38147908001281 78.77870540008166 47.57169912926736 H 0.0 **** 0.06
36463 H 19.067973802716494 79.05222599675494 49.30210082204566 H 0.0 **** 0.06
36464 H 20.733997991412878 78.79188278696523 48.72895671549081 H 0.0 **** 0.06
36465 H 19.57275319279364 77.44265594425553 48.731893585006475 H 0.0 **** 0.06
36466 C 108.00985946968723 71.56572697832769 55.168571586730934 C 0.0 **** -0.24
36467 H 108.50805162971787 72.40597452741889 55.65208909030571 H 0.0 **** 0.06
36468 H 107.63036062454455 71.87930420091374 54.19508526659632 H 0.0 **** 0.06
36469 H 107.18046823979701 71.22887831711438 55.79038563937439 H 0.0 **** 0.06
36470 H 108.71928974845193 70.7491127802727 55.03621426520408 H 0.0 **** 0.06
36471 C 46.798134818294685 98.02556684012046 37.00491788275238 C 0.0 **** -0.24
36472 H 46.14640122262681 97.34893456671921 36.45278510592698 H 0.0 **** 0.06
36473 H 47.17949431584658 98.79349814723489 36.33021711611363 H 0.0 **** 0.06
36474 H 47.63332517883467 97.46399667039344 37.42505671124823 H 0.0 **** 0.06
36475 H 46.235395070734114 98.49613274312588 37.81034707821658 H 0.0 **** 0.06
36476 C 86.57280814904084 16.379225907496306 52.638593070062825 C 0.0 **** -0.24
36477 H 87.04888466729955 16.45718858815694 51.6614991720063 H 0.0 **** 0.06
36478 H 86.38083759381016 17.37833132963985 53.030431357975374 H 0.0 **** 0.06
36479 H 87.2306558174472 15.841568490194803 53.32135766746546 H 0.0 **** 0.06
36480 H 85.63004631359081 15.83976704653702 52.54167106002427 H 0.0 **** 0.06
36481 C 1.8188484632260042 101.53697502327077 15.98424760408301 C 0.0 **** -0.24
36482 H 1.9433652920391182 100.74274246378502 16.71948748727732 H 0.0 **** 0.06
36483 H 2.3581576592590636 101.2776854954364 15.073209139207052 H 0.0 **** 0.06
36484 H 2.2121736954510425 102.46983205597047 16.3868907617765 H 0.0 **** 0.06
36485 H 0.7586979908779767 101.65757936306386 15.757363872078912 H 0.0 **** 0.06
36486 C 92.13588015312214 22.291903276126213 93.57191370722103 C 0.0 **** -0.24
36487 H 91.57463542896545 21.986252607751574 94.45447562512382 H 0.0 **** 0.06
36488 H 92.7050491881862 23.193776383012462 93.79925731177462 H 0.0 **** 0.06
36489 H 91.44419437232278 22.49524774568822 92.75497716863562 H 0.0 **** 0.06
36490 H 92.8193615947572 21.49445066686127 93.28105466090346 H 0.0 **** 0.06
36491 C 73.36116414158404 42.34978120317359 33.22425157712713 C 0.0 **** -0.24
36492 H 72.31503470140494 42.05073469834553 33.15974631138913 H 0.0 **** 0.06
36493 H 73.84254215965237 41.81479227352013 34.04383420944293 H 0.0 **** 0.06
36494 H 73.4223875873812 43.422264540955496 33.404275564166454 H 0.0 **** 0.06
36495 H 73.86521710322033 42.10877002926613 32.28768238633737 H 0.0 **** 0.06
36496 C 66.678213587465 27.089210880414726 92.788347888335 C 0.0 **** -0.24
36497 H 67.6110183357901 26.572461003365447 92.560856205021 H 0.0 **** 0.06
36498 H 66.38762779879852 27.70397156141354 91.9358909611358 H 0.0 **** 0.06
36499 H 66.81886895740315 27.72360067651863 93.66316511245938 H 0.0 **** 0.06
36500 H 65.89727956521047 26.35711179015368 92.99121105713695 H 0.0 **** 0.06
36501 C 3.6192110509301187 62.56535512153948 39.290871775963666 C 0.0 **** -0.24
36502 H 2.812563935363869 62.024841408480896 39.78539262517597 H 0.0 **** 0.06
36503 H 3.4685427257672927 62.53427753126259 38.212012301801536 H 0.0 **** 0.06
36504 H 4.573096246924791 62.100771275854626 39.539027760435005 H 0.0 **** 0.06
36505 H 3.6219493347775256 63.60260817952759 39.62765392967151 H 0.0 **** 0.06
36506 C 75.28407896845636 20.15377563179655 39.80369480997333 C 0.0 **** -0.24
36507 H 74.37506774115633 20.44993792067656 40.32744575677003 H 0.0 **** 0.06
36508 H 75.97981724522305 20.992390425009557 39.78073791952604 H 0.0 **** 0.06
36509 H 75.03518018776901 19.86015521562992 38.783769312750806 H 0.0 **** 0.06
36510 H 75.74421811452078 19.31270812655515 40.32189838648953 H 0.0 **** 0.06
36511 C 113.87633204813606 112.89385472103129 37.97621103411604 C 0.0 **** -0.24
36512 H 114.32241613252377 112.89850827665919 38.97114717988196 H 0.0 **** 0.06
36513 H 113.6925587646194 113.9188654029864 37.65585970180313 H 0.0 **** 0.06
36514 H 112.9334458746846 112.34737493807117 38.00385310290137 H 0.0 **** 0.06
36515 H 114.55591050656349 112.4095479913442 37.27564154294827 H 0.0 **** 0.06
36516 C 105.37114463062305 12.258376468372106 94.20875160767643 C 0.0 **** -0.24
36517 H 106.19596606148981 12.002749955452806 94.87476235248496 H 0.0 **** 0.06
36518 H 104.58703065179866 11.506799047138585 94.29701353381854 H 0.0 **** 0.06
36519 H 105.73220530222922 12.289728482714068 93.18101050791162 H 0.0 **** 0.06
36520 H 104.97230489133105 13.234809815368596 94.48326266591239 H 0.0 **** 0.06
36521 C 18.69163261607258 62.163369461417915 67.16804869055763 C 0.0 **** -0.24
36522 H 18.357349321662724 63.00399743992307 66.56054906238364 H 0.0 **** 0.06
36523 H 18.35217616199924 62.30075496820899 68.1952858402744 H 0.0 **** 0.06
36524 H 19.77972672264454 62.11201542178837 67.14932796172651 H 0.0 **** 0.06
36525 H 18.275997002691923 61.238631296426746 66.76784884742413 H 0.0 **** 0.06
36526 C 38.54996153018351 6.031134081466064 67.31398701572635 C 0.0 **** -0.24
36527 H 39.1501923244887 6.925009533947929 67.14597454612407 H 0.0 **** 0.06
36528 H 37.6159657204126 6.3083683603277905 67.80195268198666 H 0.0 **** 0.06
36529 H 39.10116613501202 5.3379761500413565 67.94866966381421 H 0.0 **** 0.06
36530 H 38.33407597580573 5.554149451172265 66.3580667090339 H 0.0 **** 0.06
36531 C 102.17388184359824 90.01334905866531 0.5542031715177984 C 0.0 **** -0.24
36532 H 102.83736266091216 89.67465324487478 -0.24184640868193696 H 0.0 **** 0.06
36533 H 102.61027034862666 89.76149445720074 1.521518512895426 H 0.0 **** 0.06
36534 H 101.20612004241849 89.52298418810403 0.4531047290452648 H 0.0 **** 0.06
36535 H 102.04425827124545 91.09258195084752 0.4840279960232863 H 0.0 **** 0.06
36536 C 81.51528394289357 66.37595330678121 81.64413782543869 C 0.0 **** -0.24
36537 H 81.843369937472 67.33990017055324 82.03325552781907 H 0.0 **** 0.06
36538 H 80.73845804248037 65.96850659952312 82.29069580547426 H 0.0 **** 0.06
36539 H 82.361467212771 65.68954497345376 81.61553674066508 H 0.0 **** 0.06
36540 H 81.11979022034495 66.50733617149376 80.63721986373706 H 0.0 **** 0.06
36541 C 62.53173102501043 15.02638933557887 55.104777504203895 C 0.0 **** -0.24
36542 H 63.60989693819646 14.895160001351229 55.02284715931668 H 0.0 **** 0.06
36543 H 62.25220231984986 15.089926714467282 56.15691785579662 H 0.0 **** 0.06
36544 H 62.02631310739491 14.177225493109404 54.64454922972084 H 0.0 **** 0.06
36545 H 62.23723565070188 15.943749575602936 54.595138206878914 H 0.0 **** 0.06
36546 C 43.97616728153278 24.886646027937957 74.30440436565021 C 0.0 **** -0.24
36547 H 43.618271287593075 24.28608009565528 73.46807932198459 H 0.0 **** 0.06
36548 H 44.41599765448865 24.2329151239843 75.0587695315549 H 0.0 **** 0.06
36549 H 43.1427079251406 25.436147398026264 74.74069467544899 H 0.0 **** 0.06
36550 H 44.72982863586549 25.590254987332912 73.94990530266944 H 0.0 **** 0.06
36551 C 77.19795150387297 17.945531018527845 59.66550120334091 C 0.0 **** -0.24
36552 H 76.4253167076985 17.176848515361712 59.63666949541687 H 0.0 **** 0.06
36553 H 77.7218873945595 17.970462991829095 58.70942422084272 H 0.0 **** 0.06
36554 H 77.90590998589502 17.718483583349723 60.46228083174361 H 0.0 **** 0.06
36555 H 76.73830586285592 18.91543190526488 59.85341518028417 H 0.0 **** 0.06
36556 C 109.99230556759227 72.38833005900172 41.04690868197747 C 0.0 **** -0.24
36557 H 110.26995495739567 73.44175131717574 41.018908807109824 H 0.0 **** 0.06
36558 H 109.66894781313192 72.07190227702304 40.05453432990623 H 0.0 **** 0.06
36559 H 109.17796782778316 72.24619734302445 41.757179669242134 H 0.0 **** 0.06
36560 H 110.85165162230942 71.79438974534362 41.3561977827176 H 0.0 **** 0.06
36561 C 105.96808397132536 95.83447251517319 68.45675734577188 C 0.0 **** -0.24
36562 H 105.44745312959785 96.61311159173634 69.01349895854423 H 0.0 **** 0.06
36563 H 106.85798263326237 95.52769644066747 69.00705036628823 H 0.0 **** 0.06
36564 H 106.26060638407809 96.22011368577799 67.4800644123259 H 0.0 **** 0.06
36565 H 105.30677931652576 94.97826177591128 68.3261133917133 H 0.0 **** 0.06
36566 C 13.87421175818929 79.35037975008116 65.14239624480986 C 0.0 **** -0.24
36567 H 13.42308426472053 79.32343764724426 64.150693345795 H 0.0 **** 0.06
36568 H 14.743573733227464 78.69259163694848 65.16344749442538 H 0.0 **** 0.06
36569 H 13.146724126387596 79.01697985376369 65.88173429129273 H 0.0 **** 0.06
36570 H 14.184036484250328 80.37058715907071 65.37254430894322 H 0.0 **** 0.06
36571 C 18.402110758972242 93.52049847680487 56.464291981951675 C 0.0 **** -0.24
36572 H 18.428864200432486 94.60724642353337 56.55457935282061 H 0.0 **** 0.06
36573 H 17.37975290043636 93.19829583015537 56.26164072695141 H 0.0 **** 0.06
36574 H 18.74840837582775 93.07053676295291 57.39490736411726 H 0.0 **** 0.06
36575 H 19.050577739914957 93.2087464552962 55.64551374243721 H 0.0 **** 0.06
36576 C 40.149801763259376 13.630893695757642 100.1671454917148 C 0.0 **** -0.24
36577 H 41.12008426609492 13.391030516391577 99.73271477015945 H 0.0 **** 0.06
36578 H 40.28887937771589 14.289227889749462 101.02535125161559 H 0.0 **** 0.06
36579 H 39.659604086429624 12.71199150140399 100.4890749264866 H 0.0 **** 0.06
36580 H 39.531598368156125 14.131471708074955 99.42168335937427 H 0.0 **** 0.06
36581 C 79.83302672971118 21.014352943555977 83.7642145396436 C 0.0 **** -0.24
36582 H 79.75577020048638 21.12918091550881 82.68291599883656 H 0.0 **** 0.06
36583 H 79.50023619348727 21.93028454651646 84.25109053381584 H 0.0 **** 0.06
36584 H 80.8693424643995 20.813955788868228 84.03470148085626 H 0.0 **** 0.06
36585 H 79.20650241764059 20.18226957923389 84.08674540933617 H 0.0 **** 0.06
36586 C 100.55297711917052 99.68184498557314 23.159891358529144 C 0.0 **** -0.24
36587 H 101.2172445384636 100.49221108701366 23.459719837153294 H 0.0 **** 0.06
36588 H 100.79903227151931 99.36754390765256 22.145551546205215 H 0.0 **** 0.06
36589 H 99.52021505426575 100.02783152994363 23.193763847717246 H 0.0 **** 0.06
36590 H 100.67726468871194 98.83984740168928 23.841293044600313 H 0.0 **** 0.06
36591 C 99.0458618189844 53.07242000939817 81.34745989302405 C 0.0 **** -0.24
36592 H 100.11305553536182 52.87449532898694 81.24700119258534 H 0.0 **** 0.06
36593 H 98.81145029398886 53.27881966372229 82.3923412467554 H 0.0 **** 0.06
36594 H 98.48132881373002 52.20314252158221 81.01233662225746 H 0.0 **** 0.06
36595 H 98.77900145733754 53.936548426906114 80.73805916464687 H 0.0 **** 0.06
36596 C 112.37988614590844 34.54295912235153 113.3712218788337 C 0.0 **** -0.24
36597 H 111.95014296590841 35.229724351219986 114.10130882219734 H 0.0 **** 0.06
36598 H 113.06257118035805 33.858206382659134 113.87490175120504 H 0.0 **** 0.06
36599 H 112.92419324325996 35.109663334438835 112.61568717899267 H 0.0 **** 0.06
36600 H 111.58114079802473 33.974556869179764 112.89380345314407 H 0.0 **** 0.06
36601 C 33.579378530570466 20.38942237693786 100.9452477951493 C 0.0 **** -0.24
36602 H 33.25804300614374 19.774526177476872 100.10396083074555 H 0.0 **** 0.06
36603 H 34.65636289735022 20.547095772747696 100.88865875108102 H 0.0 **** 0.06
36604 H 33.33498758053872 19.883323230590747 101.87880134528446 H 0.0 **** 0.06
36605 H 33.06786760309711 21.351287407287202 100.90822355908975 H 0.0 **** 0.06
36606 C 88.94596754945326 44.01522409977332 44.25196279028429 C 0.0 **** -0.24
36607 H 88.96672789535023 44.110440943829815 45.33807759725212 H 0.0 **** 0.06
36608 H 89.90209998447597 44.33698428443634 43.840498766428674 H 0.0 **** 0.06
36609 H 88.14783834781866 44.63877168966687 43.84866171681187 H 0.0 **** 0.06
36610 H 88.76543550666486 42.97525750621507 43.98274887084288 H 0.0 **** 0.06
36611 C 11.306064088341412 25.10263412582914 92.17905687398286 C 0.0 **** -0.24
36612 H 11.705283132608002 24.09973977170796 92.32821646829666 H 0.0 **** 0.06
36613 H 11.179175876598887 25.59019973989153 93.14691628954188 H 0.0 **** 0.06
36614 H 10.342368621115373 25.038812245814825 91.67567306539155 H 0.0 **** 0.06
36615 H 11.998396814385895 25.68172380884141 91.56826061574179 H 0.0 **** 0.06
36616 C 35.695130662165354 76.80420914689535 96.60184836706176 C 0.0 **** -0.24
36617 H 35.112031748551715 76.00499903720811 97.06047399559287 H 0.0 **** 0.06
36618 H 35.58006074101846 77.71737600353515 97.18493301139009 H 0.0 **** 0.06
36619 H 35.340204739251874 76.97407739814793 95.58462223467666 H 0.0 **** 0.06
36620 H 36.74612287704241 76.51745620018033 96.5772795476781 H 0.0 **** 0.06
36621 C 105.5549824960525 78.81828027663164 18.766763230413858 C 0.0 **** -0.24
36622 H 105.33064809478287 77.78156389720863 18.51488269395 H 0.0 **** 0.06
36623 H 104.90779359358726 79.48043076225167 18.189973910166003 H 0.0 **** 0.06
36624 H 106.59686967060622 79.03164504193109 18.529514198314246 H 0.0 **** 0.06
36625 H 105.38395104831329 78.97829437541799 19.830908539281523 H 0.0 **** 0.06
36626 C 73.0283495474473 40.47672169051748 26.65862170167958 C 0.0 **** -0.24
36627 H 72.21043483621094 41.101674604005126 27.017473966378162 H 0.0 **** 0.06
36628 H 73.86060127642452 40.530492387747074 27.36096731949459 H 0.0 **** 0.06
36629 H 73.3532736314948 40.83072531043629 25.680718189615305 H 0.0 **** 0.06
36630 H 72.68777766170655 39.44452817318209 26.577326665298216 H 0.0 **** 0.06
36631 C 26.871212173089077 9.033670616315248 95.65754896604682 C 0.0 **** -0.24
36632 H 27.942918944850575 9.063802454392743 95.45987689780816 H 0.0 **** 0.06
36633 H 26.69094601339475 8.514183931000673 96.59930016209495 H 0.0 **** 0.06
36634 H 26.366600647203498 8.506432491261364 94.84783066297962 H 0.0 **** 0.06
36635 H 26.485169354611813 10.051218968677176 95.7238730834494 H 0.0 **** 0.06
36636 C 14.89685201501878 101.61448229299441 11.95127284831797 C 0.0 **** -0.24
36637 H 14.513884088650698 101.94151899911796 12.91768895150544 H 0.0 **** 0.06
36638 H 14.703246267413025 102.38554360683774 11.204540027496904 H 0.0 **** 0.06
36639 H 14.398994541128271 100.69074929850314 11.657103134181384 H 0.0 **** 0.06
36640 H 15.970308032680578 101.44232394281646 12.025334961349358 H 0.0 **** 0.06
36641 C 52.5849521272921 101.40507904286287 10.584262157452883 C 0.0 **** -0.24
36642 H 53.501077699111704 101.43075078347285 9.993649348251438 H 0.0 **** 0.06
36643 H 52.00625017455516 102.31001975090744 10.39642718888524 H 0.0 **** 0.06
36644 H 52.837247555170734 101.3475611717165 11.642693646294674 H 0.0 **** 0.06
36645 H 51.995966060044594 100.53221576592584 10.301952595577063 H 0.0 **** 0.06
36646 C 44.167466225215655 85.73058670253124 90.087334220741 C 0.0 **** -0.24
36647 H 43.797872643339 84.73665501450336 89.8338426525437 H 0.0 **** 0.06
36648 H 43.801855087234884 86.0122104684782 91.07543501214359 H 0.0 **** 0.06
36649 H 43.81107382218306 86.44913113342386 89.34997145467109 H 0.0 **** 0.06
36650 H 45.257283853029115 85.72324683047634 90.09135911249491 H 0.0 **** 0.06
36651 C 79.87944919959432 5.234191753779413 18.63284592891459 C 0.0 **** -0.24
36652 H 78.99988955944247 5.657768083878665 18.14744453045286 H 0.0 **** 0.06
36653 H 80.10289207802748 4.262146330579554 18.193066967110852 H 0.0 **** 0.06
36654 H 79.68420348819495 5.116605632101866 19.69847538459264 H 0.0 **** 0.06
36655 H 80.7290821635894 5.901816993312394 18.490042168781727 H 0.0 **** 0.06
36656 C 96.812743544098 10.802695357394526 25.645205614350232 C 0.0 **** -0.24
36657 H 96.27662481792444 10.514400979156022 24.74134744926249 H 0.0 **** 0.06
36658 H 97.4444881086346 11.665252740423881 25.433717777829912 H 0.0 **** 0.06
36659 H 97.4328231748949 9.970338907052394 25.979978101721883 H 0.0 **** 0.06
36660 H 96.09624228668545 11.058484682877378 26.42602015335609 H 0.0 **** 0.06
36661 C 22.269203472618045 35.962850232235695 23.70356519468836 C 0.0 **** -0.24
36662 H 22.999080419346 36.67799090297484 24.080095264941896 H 0.0 **** 0.06
36663 H 22.08926447970083 35.19612917487572 24.457633080286875 H 0.0 **** 0.06
36664 H 22.651616905593926 35.49728306108054 22.795445871493516 H 0.0 **** 0.06
36665 H 21.335566292243897 36.47911263839387 23.480335954243536 H 0.0 **** 0.06
36666 C 79.67866978052069 54.398412982733916 99.6542068964733 C 0.0 **** -0.24
36667 H 80.35078123268875 53.67251338504492 100.11246179918358 H 0.0 **** 0.06
36668 H 79.46898297234395 55.19775145343595 100.36622312297048 H 0.0 **** 0.06
36669 H 78.74792205794387 53.90588840831604 99.3756791947051 H 0.0 **** 0.06
36670 H 80.14851733288043 54.8183234172368 98.76491220478663 H 0.0 **** 0.06
36671 C 65.50195185897998 69.32688341835025 87.39419727309206 C 0.0 **** -0.24
36672 H 66.52986917392732 69.05457240350881 87.15449273422678 H 0.0 **** 0.06
36673 H 65.15375730615884 70.0830168013509 86.69180684476015 H 0.0 **** 0.06
36674 H 65.45980014217193 69.72477856321291 88.40888704391205 H 0.0 **** 0.06
36675 H 64.86698040162307 68.4437121436108 87.32386731281224 H 0.0 **** 0.06
36676 C 89.69098208975885 38.08028996753686 60.59379109108653 C 0.0 **** -0.24
36677 H 90.45339662811097 38.72834832276706 61.0263821340281 H 0.0 **** 0.06
36678 H 89.99060683084913 37.78823905571761 59.587085643818455 H 0.0 **** 0.06
36679 H 88.74169244603655 38.61446957376613 60.55104898746211 H 0.0 **** 0.06
36680 H 89.57871734213705 37.18952424104239 61.21220650481291 H 0.0 **** 0.06
36681 C 79.33335543716302 57.57996079666829 91.2275487280747 C 0.0 **** -0.24
36682 H 78.90316342713987 58.56905043088959 91.38235518824098 H 0.0 **** 0.06
36683 H 79.76337656004642 57.52424880748025 90.22714050933722 H 0.0 **** 0.06
36684 H 78.55479575469235 56.82529395526093 91.33089394673168 H 0.0 **** 0.06
36685 H 80.11328497678267 57.40301404079639 91.96913378399861 H 0.0 **** 0.06
36686 C 44.00103467974544 49.79275177669831 55.91952737064463 C 0.0 **** -0.24
36687 H 44.109116913928304 49.518120183496535 54.870569204724575 H 0.0 **** 0.06
36688 H 44.91975324581845 49.553581134439014 56.454443357850295 H 0.0 **** 0.06
36689 H 43.1705443572745 49.237158638668404 56.35628898003108 H 0.0 **** 0.06
36690 H 43.80272429989951 50.86213508896685 55.996786174866 H 0.0 **** 0.06
36691 C 44.365767520251666 69.98728064814856 58.57182259283445 C 0.0 **** -0.24
36692 H 43.29040678026081 69.85365829202726 58.686181043485476 H 0.0 **** 0.06
36693 H 44.56315128818409 70.9292058892035 58.06050467249969 H 0.0 **** 0.06
36694 H 44.77418377998629 69.16337548257201 57.98715349445206 H 0.0 **** 0.06
36695 H 44.83519464965525 70.00155916284666 59.55614008467933 H 0.0 **** 0.06
36696 C 8.164973921801533 60.69740313001478 60.374069262052956 C 0.0 **** -0.24
36697 H 7.954076949460145 59.78221369186019 59.821407269205736 H 0.0 **** 0.06
36698 H 7.241512532530777 61.081343292184954 60.80734810787658 H 0.0 **** 0.06
36699 H 8.585462608712362 61.44123940764814 59.69717014005448 H 0.0 **** 0.06
36700 H 8.879311487872855 60.485535059243205 61.16884674316805 H 0.0 **** 0.06
36701 C 81.16436410078128 36.08317546034819 100.39287852021994 C 0.0 **** -0.24
36702 H 81.03104803523807 36.151276660223836 99.31262036618335 H 0.0 **** 0.06
36703 H 82.21853416382854 35.91775300034646 100.61840351113307 H 0.0 **** 0.06
36704 H 80.57475336654977 35.25179030677343 100.77944607255716 H 0.0 **** 0.06
36705 H 80.83354083113444 37.01083296511015 100.85792579477084 H 0.0 **** 0.06
36706 C 105.50467997962843 6.751668224054015 33.82519511859047 C 0.0 **** -0.24
36707 H 105.9696329548342 6.948824496218208 32.85903482499387 H 0.0 **** 0.06
36708 H 106.13162893459616 7.157784172206277 34.61951838183451 H 0.0 **** 0.06
36709 H 105.39628231354135 5.675394284102879 33.96229709654257 H 0.0 **** 0.06
36710 H 104.52331166215731 7.223588720212462 33.85941149091295 H 0.0 **** 0.06
36711 C 49.72365573104173 97.56493406966734 58.91216417389944 C 0.0 **** -0.24
36712 H 50.587200088052896 97.80847545171486 59.53111513634869 H 0.0 **** 0.06
36713 H 49.98792134613015 97.67818790896632 57.86060826693944 H 0.0 **** 0.06
36714 H 48.90203966852144 98.23871354709502 59.154448706537835 H 0.0 **** 0.06
36715 H 49.419096413079046 96.53618347993901 59.10251741271591 H 0.0 **** 0.06
36716 C 107.45548289295307 40.61830416084862 40.133203632799535 C 0.0 **** -0.24
36717 H 108.49914146104652 40.69879141716666 40.43776753299778 H 0.0 **** 0.06
36718 H 106.85803354459675 41.34416829232947 40.685385784414905 H 0.0 **** 0.06
36719 H 107.09272777522882 39.61212103488225 40.34509001882128 H 0.0 **** 0.06
36720 H 107.3723781526551 40.81688580866992 39.06513274125973 H 0.0 **** 0.06
36721 C 2.195913619094142 108.3103913000038 23.38161071566411 C 0.0 **** -0.24
36722 H 2.2807483515905886 107.23767109706932 23.20415350046487 H 0.0 **** 0.06
36723 H 1.2213362825117144 108.52962060050996 23.81657051064002 H 0.0 **** 0.06
36724 H 2.301828612614699 108.84379779040873 22.4374555212071 H 0.0 **** 0.06
36725 H 2.9811707615135106 108.62750128564414 24.06859476940869 H 0.0 **** 0.06
36726 C 52.29768303017991 52.69959800549382 74.80797421573038 C 0.0 **** -0.24
36727 H 51.48342113535273 53.31810204686106 75.18581529966951 H 0.0 **** 0.06
36728 H 52.57442543241177 51.96383179408381 75.5635688969221 H 0.0 **** 0.06
36729 H 53.15790790057372 53.330326292666044 74.58359383103618 H 0.0 **** 0.06
36730 H 51.975170388588595 52.187963398961465 73.90167728543275 H 0.0 **** 0.06
36731 C 38.34179757091508 38.86368914565713 114.81020429031946 C 0.0 **** -0.24
36732 H 37.91301188921727 39.214297191596245 115.74946859949362 H 0.0 **** 0.06
36733 H 38.26598696125029 39.652023195258494 114.06057585436315 H 0.0 **** 0.06
36734 H 37.79753084835758 37.98313064368273 114.46952557225481 H 0.0 **** 0.06
36735 H 39.38954554066632 38.60657284778637 114.96392130919598 H 0.0 **** 0.06
36736 C 111.56490281859487 93.9486431887899 72.14159551390046 C 0.0 **** -0.24
36737 H 110.49548343580102 93.90182733979123 71.9333406756992 H 0.0 **** 0.06
36738 H 112.06681296278748 94.48918869148497 71.33867499505412 H 0.0 **** 0.06
36739 H 111.96610512275015 92.93796595998128 72.20626946406 H 0.0 **** 0.06
36740 H 111.72864065717283 94.46646788350279 73.08647489235186 H 0.0 **** 0.06
36741 C 21.248272010637606 22.47801426213553 14.494057016974327 C 0.0 **** -0.24
36742 H 21.188405294165733 23.185000462318555 13.666264123474203 H 0.0 **** 0.06
36743 H 22.04708811735631 22.77891535213422 15.17177960588096 H 0.0 **** 0.06
36744 H 21.45652907212711 21.48061964753836 14.105566876197557 H 0.0 **** 0.06
36745 H 20.29929452419941 22.46789939875775 15.031305601707306 H 0.0 **** 0.06
36746 C 104.8317951339207 34.88143645208942 87.29736487401709 C 0.0 **** -0.24
36747 H 104.3118194756629 34.21981216778326 86.60483967361506 H 0.0 **** 0.06
36748 H 104.14040194771309 35.21172339224307 88.07271612580831 H 0.0 **** 0.06
36749 H 105.21291448356999 35.74702884405548 86.75583335428308 H 0.0 **** 0.06
36750 H 105.66330743750427 34.34542396641186 87.75550730552351 H 0.0 **** 0.06
36751 C 54.22161832926502 3.747517026349101 78.5784581727678 C 0.0 **** -0.24
36752 H 53.191276881916934 3.4568227264772986 78.37492230940262 H 0.0 **** 0.06
36753 H 54.80753653584617 3.6753982727565244 77.66259123382727 H 0.0 **** 0.06
36754 H 54.64350346862699 3.084564187963565 79.33369787297562 H 0.0 **** 0.06
36755 H 54.24336393434539 4.774722710525339 78.94376108848257 H 0.0 **** 0.06
36756 C 94.45770910251784 112.23348519161016 69.15060059080281 C 0.0 **** -0.24
36757 H 93.47264933056621 112.20002389303548 68.68390667886234 H 0.0 **** 0.06
36758 H 94.49128361367613 111.52426855893094 69.97802920481132 H 0.0 **** 0.06
36759 H 94.64716837041476 113.23910148144154 69.52543200925822 H 0.0 **** 0.06
36760 H 95.2175033885212 111.97053315119766 68.4148945365045 H 0.0 **** 0.06
36761 C 95.41292718919422 91.25655105254896 49.198605525473795 C 0.0 **** -0.24
36762 H 94.4201172664221 91.34245003189659 49.639715885554835 H 0.0 **** 0.06
36763 H 96.02983797116417 90.60390252503942 49.816930345872095 H 0.0 **** 0.06
36764 H 95.87194921389326 92.2441288478172 49.14220964629496 H 0.0 **** 0.06
36765 H 95.3300957644118 90.83593077729824 48.196934402895465 H 0.0 **** 0.06
36766 C 68.57805935944077 4.640947607582447 19.335882697518333 C 0.0 **** -0.24
36767 H 69.13694282170405 4.124346877459132 18.555019991978853 H 0.0 **** 0.06
36768 H 68.99169114879271 4.3815470391455165 20.310671223264087 H 0.0 **** 0.06
36769 H 67.53191081101971 4.339726289527462 19.29314602806926 H 0.0 **** 0.06
36770 H 68.6537945407785 5.71756256138795 19.18423190660337 H 0.0 **** 0.06
36771 C 104.23970605917468 2.500246857006246 114.5752661152454 C 0.0 **** -0.24
36772 H 103.72391917630956 3.0732095956887235 115.34668702510393 H 0.0 **** 0.06
36773 H 103.65695320799065 1.6120623971241628 114.33140544891975 H 0.0 **** 0.06
36774 H 105.22173841528077 2.2025919862482226 114.9410276601015 H 0.0 **** 0.06
36775 H 104.35490540620454 3.115583713439463 113.68305638153157 H 0.0 **** 0.06
36776 C 52.633040189181074 88.6492327155219 75.73327340285128 C 0.0 **** -0.24
36777 H 52.85137572485441 89.54709754415715 75.15397902859992 H 0.0 **** 0.06
36778 H 51.56062139527475 88.45208924709358 75.70568665269484 H 0.0 **** 0.06
36779 H 52.94917902281671 88.79780717016601 76.76597396224616 H 0.0 **** 0.06
36780 H 53.169709042746234 87.80279397185357 75.30635365505299 H 0.0 **** 0.06
36781 C 41.9713058997672 27.77797652987033 86.09451305838826 C 0.0 **** -0.24
36782 H 41.921645429872854 26.841789797376293 86.65025470188618 H 0.0 **** 0.06
36783 H 42.44305537360259 28.542617210124746 86.71208463112504 H 0.0 **** 0.06
36784 H 40.964333209768796 28.09611666334746 85.82721672682953 H 0.0 **** 0.06
36785 H 42.559146503176635 27.630387136641673 85.18797987686548 H 0.0 **** 0.06
36786 C 82.94047243068815 52.51825270911576 55.17440966656933 C 0.0 **** -0.24
36787 H 82.615309751432 52.44874748943829 56.21223421068795 H 0.0 **** 0.06
36788 H 82.58859212031132 53.4570399897496 54.74502950520953 H 0.0 **** 0.06
36789 H 82.52933266351465 51.682545277562724 54.60894818873688 H 0.0 **** 0.06
36790 H 84.02964535449024 52.484492251217944 55.13241930928144 H 0.0 **** 0.06
36791 C 114.274469306632 67.44011446416727 102.77369488178142 C 0.0 **** -0.24
36792 H 114.24157587162392 67.28543671604706 101.69521846979453 H 0.0 **** 0.06
36793 H 113.75867302454256 68.36701365997823 103.02409180276463 H 0.0 **** 0.06
36794 H 115.31333056909348 67.50258174219476 103.10001030702874 H 0.0 **** 0.06
36795 H 113.78609447921939 66.60456606177854 103.27564057372956 H 0.0 **** 0.06
36796 C 110.1537531761514 49.028858728989434 81.76202935432372 C 0.0 **** -0.24
36797 H 110.4718047776512 49.22663868434185 82.78544168386021 H 0.0 **** 0.06
36798 H 111.02379884530586 48.78055927952056 81.15325884302891 H 0.0 **** 0.06
36799 H 109.66604328138213 49.91444929396704 81.35553467758223 H 0.0 **** 0.06
36800 H 109.45473562654139 48.192766521185746 81.75416686332319 H 0.0 **** 0.06
36801 C 81.84355691812283 40.06697992369826 110.72271137873115 C 0.0 **** -0.24
36802 H 80.88434999608265 39.658339919956475 111.04263802181971 H 0.0 **** 0.06
36803 H 82.64653150121802 39.58991066119428 111.28418289537605 H 0.0 **** 0.06
36804 H 81.85957569961536 41.14128949236652 110.90624312597268 H 0.0 **** 0.06
36805 H 81.98165888080854 39.87797139986095 109.65839368669226 H 0.0 **** 0.06
36806 C 36.45131746670344 70.41116379384395 18.504182857372314 C 0.0 **** -0.24
36807 H 35.50597360174953 70.95004588687708 18.564012575051493 H 0.0 **** 0.06
36808 H 36.36769067948239 69.6124128948114 17.766840231327762 H 0.0 **** 0.06
36809 H 36.68790117921604 69.98397458233987 19.47888388924713 H 0.0 **** 0.06
36810 H 37.24373534920746 71.09894768679976 18.207681905042904 H 0.0 **** 0.06
36811 C 50.11203673039955 103.9887407273401 8.781707027463654 C 0.0 **** -0.24
36812 H 51.19592612324527 104.09381896579103 8.820240893062817 H 0.0 **** 0.06
36813 H 49.81621908221729 103.63569284161241 7.793037846349023 H 0.0 **** 0.06
36814 H 49.646186948548916 104.95508768698402 8.977147918141213 H 0.0 **** 0.06
36815 H 49.7890140483222 103.27041886733649 9.535804936956254 H 0.0 **** 0.06
36816 C 79.74636803286579 38.64690616400412 11.676721042743111 C 0.0 **** -0.24
36817 H 79.99463577063598 37.69316498336727 12.144014881030785 H 0.0 **** 0.06
36818 H 80.55178973322873 39.35933527776827 11.857691339065752 H 0.0 **** 0.06
36819 H 78.81941135682028 39.02951865975716 12.103560049403711 H 0.0 **** 0.06
36820 H 79.62072634817093 38.504344598208135 10.603412177085445 H 0.0 **** 0.06
36821 C 44.66375652846304 28.68855295014619 95.27591890541675 C 0.0 **** -0.24
36822 H 43.97284196029824 28.957406652897156 94.47683674167442 H 0.0 **** 0.06
36823 H 44.67348734569444 29.477250649826907 96.02816274790268 H 0.0 **** 0.06
36824 H 45.66483624000756 28.565163949307596 94.8637489497288 H 0.0 **** 0.06
36825 H 44.341428804598024 27.752611474560496 95.73396697830685 H 0.0 **** 0.06
36826 C 35.05285178214737 47.87628536498914 31.022646918298662 C 0.0 **** -0.24
36827 H 35.582455407029016 47.01199507310602 31.421389634059118 H 0.0 **** 0.06
36828 H 34.287535855143375 47.54161029551029 30.322040245334726 H 0.0 **** 0.06
36829 H 35.75821070663383 48.52790145872229 30.506106642742225 H 0.0 **** 0.06
36830 H 34.58382752342837 48.42473195029117 31.839864252577925 H 0.0 **** 0.06
36831 C 110.22173258588023 71.9338668249751 88.52561066976568 C 0.0 **** -0.24
36832 H 110.94510452850741 72.67172944559394 88.87165879238574 H 0.0 **** 0.06
36833 H 110.1490796096164 71.97761291352322 87.43922706339748 H 0.0 **** 0.06
36834 H 109.24651749542389 72.14879474666628 88.96406266052134 H 0.0 **** 0.06
36835 H 110.54477643867668 70.93816676708832 88.82897447963464 H 0.0 **** 0.06
36836 C 91.53482050231054 44.233268869630734 95.27149151376648 C 0.0 **** -0.24
36837 H 92.55868618957771 43.883883338711826 95.14218064058281 H 0.0 **** 0.06
36838 H 91.06520739172595 43.68664631876018 96.09049272298745 H 0.0 **** 0.06
36839 H 90.97373650936862 44.06310434632417 94.35239556388379 H 0.0 **** 0.06
36840 H 91.54036450280904 45.298872407603255 95.50103437553051 H 0.0 **** 0.06
36841 C 10.183806037338996 46.726098750492454 45.55454287895381 C 0.0 **** -0.24
36842 H 9.486260364011713 46.22745211470328 46.22753851236402 H 0.0 **** 0.06
36843 H 10.991938003499968 47.171520599045564 46.13520430104893 H 0.0 **** 0.06
36844 H 9.660080156937994 47.505923720382896 45.001745658567685 H 0.0 **** 0.06
36845 H 10.596212091355824 45.99864786351918 44.85561656782002 H 0.0 **** 0.06
36846 C 51.89362129980222 107.77122242097917 56.07480839148765 C 0.0 **** -0.24
36847 H 52.893970186452215 107.77897282333855 55.64091480703406 H 0.0 **** 0.06
36848 H 51.96849456563377 107.71749161581926 57.16086619094824 H 0.0 **** 0.06
36849 H 51.34321664503588 106.90678559322151 55.70490005163805 H 0.0 **** 0.06
36850 H 51.368629373822756 108.68424130320241 55.7907632281992 H 0.0 **** 0.06
36851 C 86.93414161726216 47.967970801587114 17.819784211173527 C 0.0 **** -0.24
36852 H 87.21958546658851 47.92699344084747 18.870145636136982 H 0.0 **** 0.06
36853 H 87.79119803161274 47.702075012437774 17.20012353796497 H 0.0 **** 0.06
36854 H 86.604735309146 48.976628322339934 17.572458544614875 H 0.0 **** 0.06
36855 H 86.12058010734181 47.26532720341538 17.636616919663595 H 0.0 **** 0.06
36856 C 73.13807148449449 33.447029918718016 48.420391371026085 C 0.0 **** -0.24
36857 H 72.6570905565404 34.35425559493548 48.7864289230931 H 0.0 **** 0.06
36858 H 73.94255850299855 33.71500268643064 47.73524773235923 H 0.0 **** 0.06
36859 H 72.40514848703795 32.83250038253553 47.89855822917491 H 0.0 **** 0.06
36860 H 73.54743613740413 32.88920601027061 49.26228126254097 H 0.0 **** 0.06
36861 C 6.4667888494197765 2.571299949944688 55.468915676763814 C 0.0 **** -0.24
36862 H 5.944487923196798 2.9193808380899497 54.57808294274115 H 0.0 **** 0.06
36863 H 7.09278185515903 3.372785981514994 55.86009773768313 H 0.0 **** 0.06
36864 H 7.0894566409451425 1.7149669909412353 55.212722084670226 H 0.0 **** 0.06
36865 H 5.738032420708404 2.277615651530141 56.224527458708465 H 0.0 **** 0.06
36866 C 78.58406887700241 104.93956911258061 93.48886359393191 C 0.0 **** -0.24
36867 H 77.51476365550803 105.04811807701253 93.30431797576142 H 0.0 **** 0.06
36868 H 78.84162681715993 105.43159611651038 94.42700799324365 H 0.0 **** 0.06
36869 H 79.1415635251675 105.39807767164602 92.67243775955492 H 0.0 **** 0.06
36870 H 78.8352919836389 103.88133089377108 93.55201668292773 H 0.0 **** 0.06
36871 C 103.77733566031259 80.9640818320986 70.16516967837538 C 0.0 **** -0.24
36872 H 103.91139564528652 79.8826801416333 70.20402716697458 H 0.0 **** 0.06
36873 H 103.08131107883793 81.27160940114115 70.94636760343394 H 0.0 **** 0.06
36874 H 103.37827327383968 81.24525536734461 69.19128666053803 H 0.0 **** 0.06
36875 H 104.73831102664917 81.45377884613816 70.3207225571656 H 0.0 **** 0.06
36876 C 111.29955061919648 71.64484111718821 18.36703739569964 C 0.0 **** -0.24
36877 H 111.76016217814444 72.49015492864066 17.856279060414238 H 0.0 **** 0.06
36878 H 110.2599031830109 71.8799687978389 18.594512063834642 H 0.0 **** 0.06
36879 H 111.83764172966636 71.44450504710449 19.293633304791413 H 0.0 **** 0.06
36880 H 111.34116691395309 70.76496466072615 17.72494856646796 H 0.0 **** 0.06
36881 C 0.9334363279651878 15.432620312739644 60.75974710243875 C 0.0 **** -0.24
36882 H 0.528761608873408 15.28127968020516 61.7610602435324 H 0.0 **** 0.06
36883 H 0.11403964704016367 15.50369898757188 60.0436468850352 H 0.0 **** 0.06
36884 H 1.573524066685673 14.590308482021243 60.49654557894371 H 0.0 **** 0.06
36885 H 1.5169432597939636 16.352979404066843 60.73866746775721 H 0.0 **** 0.06
36886 C 19.899600474010686 25.83457136577985 83.13475934845337 C 0.0 **** -0.24
36887 H 18.95890988908599 25.355693242295473 82.8607710492866 H 0.0 **** 0.06
36888 H 19.971960613758924 26.802566335825162 82.63776501476065 H 0.0 **** 0.06
36889 H 20.732377004898247 25.203285500145626 82.8255362343728 H 0.0 **** 0.06
36890 H 19.932378908863868 25.977276012646 84.21486374615876 H 0.0 **** 0.06
36891 C 85.86788212288616 103.42595116917414 83.96035711892284 C 0.0 **** -0.24
36892 H 84.8073202754423 103.67927841830056 83.9687523459714 H 0.0 **** 0.06
36893 H 86.46023657769518 104.3401058343303 84.00475336516304 H 0.0 **** 0.06
36894 H 86.10430521253795 102.88309257717782 83.04491664817937 H 0.0 **** 0.06
36895 H 86.09816307506856 102.8000592842082 84.82336793476553 H 0.0 **** 0.06
36896 C 18.664319499068142 25.011824530280222 65.82348859376933 C 0.0 **** -0.24
36897 H 18.453134784669885 25.257014687376206 66.86449501784688 H 0.0 **** 0.06
36898 H 18.74158912075592 25.930311472789654 65.24230647601155 H 0.0 **** 0.06
36899 H 17.857540051236413 24.395729790959727 65.42572009071668 H 0.0 **** 0.06
36900 H 19.604227042029834 24.46335236547136 65.76357503789461 H 0.0 **** 0.06
36901 C 106.80936241488824 67.7891135890797 66.94766849596431 C 0.0 **** -0.24
36902 H 105.9083323984817 67.18274474982212 67.04551200273764 H 0.0 **** 0.06
36903 H 106.58012288564363 68.6918859106101 66.38193631608182 H 0.0 **** 0.06
36904 H 107.57581373991194 67.21729565941479 66.42520784173679 H 0.0 **** 0.06
36905 H 107.17224834417055 68.06186821506373 67.93825581032075 H 0.0 **** 0.06
36906 C 40.44759234301145 33.399470043489714 0.885705021035335 C 0.0 **** -0.24
36907 H 40.35996798254462 34.39059125114255 1.3293898262950279 H 0.0 **** 0.06
36908 H 41.16731064324016 33.43074290871968 0.06744213268120802 H 0.0 **** 0.06
36909 H 39.47627276983229 33.084869453151924 0.5048661132495909 H 0.0 **** 0.06
36910 H 40.788696326837595 32.69261798486281 1.641887390945385 H 0.0 **** 0.06
36911 C 28.33446711144171 31.297324854213016 12.001522317122124 C 0.0 **** -0.24
36912 H 28.636679530073934 30.724761230421457 11.124137479129672 H 0.0 **** 0.06
36913 H 27.503457795117185 30.794124149635685 12.495400944457629 H 0.0 **** 0.06
36914 H 28.023931142086838 32.29589004243871 11.69319528172639 H 0.0 **** 0.06
36915 H 29.174754452346747 31.375325186372343 12.690626537200956 H 0.0 **** 0.06
36916 C 42.03312784794348 77.2638269344192 88.6815885957775 C 0.0 **** -0.24
36917 H 42.4670382663222 77.0406410910517 89.65606197085441 H 0.0 **** 0.06
36918 H 42.83054368134407 77.49459413034634 87.97378625177163 H 0.0 **** 0.06
36919 H 41.36498583455511 78.120873135779 88.7682351914595 H 0.0 **** 0.06
36920 H 41.47174956125622 76.39985204342292 88.32675014335186 H 0.0 **** 0.06
36921 C 87.1100115409397 63.786465350122455 86.11268654678474 C 0.0 **** -0.24
36922 H 87.45486861452775 64.38491355527975 86.9560980217652 H 0.0 **** 0.06
36923 H 86.01937945198046 63.76658362335519 86.10443899113544 H 0.0 **** 0.06
36924 H 87.49209626869231 62.77019912868076 86.20784834198481 H 0.0 **** 0.06
36925 H 87.47259574465687 64.22581369951808 85.18338988999515 H 0.0 **** 0.06
36926 C 107.31292152492911 99.42656686091131 11.088668041201206 C 0.0 **** -0.24
36927 H 107.06023213327535 100.42425510245901 11.448989915243278 H 0.0 **** 0.06
36928 H 106.49473227252506 99.04270909896726 10.478019853457962 H 0.0 **** 0.06
36929 H 107.4745581548776 98.76364096243707 11.93872945824825 H 0.0 **** 0.06
36930 H 108.22236462735327 99.47655443290061 10.489337515616516 H 0.0 **** 0.06
36931 C 72.65694296664216 97.88975441456884 81.84116583244042 C 0.0 **** -0.24
36932 H 73.68356283911118 98.20142267647901 81.64729959416363 H 0.0 **** 0.06
36933 H 71.98522693357592 98.40518957143433 81.15409031095298 H 0.0 **** 0.06
36934 H 72.38885104371462 98.14004985794489 82.86784372431025 H 0.0 **** 0.06
36935 H 72.57053162709889 96.81367939971128 81.69513460681053 H 0.0 **** 0.06
36936 C 73.13939576303105 8.024638225244757 96.51821863560873 C 0.0 **** -0.24
36937 H 74.11100229469567 8.163691665945919 96.04374475447196 H 0.0 **** 0.06
36938 H 72.90063181196564 8.899087659052043 97.12267165837507 H 0.0 **** 0.06
36939 H 73.17011810851751 7.1402242415343835 97.1550707626544 H 0.0 **** 0.06
36940 H 72.37665598877297 7.892222418426684 95.74988685024651 H 0.0 **** 0.06
36941 C 40.86472905463077 86.66935699510873 104.39283053213012 C 0.0 **** -0.24
36942 H 39.874610926116844 86.79493696545129 103.95550082283222 H 0.0 **** 0.06
36943 H 41.62324369462729 86.95762252099672 103.6641624627589 H 0.0 **** 0.06
36944 H 41.008560140946855 85.6254543511217 104.67277602983063 H 0.0 **** 0.06
36945 H 40.95296051724998 87.29860017937327 105.27852674593055 H 0.0 **** 0.06
36946 C 46.57057431358601 101.68280439913303 70.12744262800001 C 0.0 **** -0.24
36947 H 46.70599142169422 100.6539292491056 70.46062827755028 H 0.0 **** 0.06
36948 H 47.01770086222069 102.36113351123157 70.85443646981854 H 0.0 **** 0.06
36949 H 45.50510914995154 101.89786245996697 70.03800188121313 H 0.0 **** 0.06
36950 H 47.05147545295712 101.81796744033932 69.15911492061628 H 0.0 **** 0.06
36951 C 64.15063441711918 82.0451001293932 91.45653118539472 C 0.0 **** -0.24
36952 H 65.17197140812014 82.11851263830833 91.08558267705925 H 0.0 **** 0.06
36953 H 64.09614734539849 81.26969145066155 92.22115798219876 H 0.0 **** 0.06
36954 H 63.48207119183529 81.79087160355871 90.63343478696787 H 0.0 **** 0.06
36955 H 63.849398595166164 83.00080990339916 91.88614426138972 H 0.0 **** 0.06
36956 C 5.987845422465682 58.364272432274745 102.18712930198313 C 0.0 **** -0.24
36957 H 4.902015294569551 58.40615539889322 102.27022732204168 H 0.0 **** 0.06
36958 H 6.26925393322017 58.28666768318611 101.13694345786666 H 0.0 **** 0.06
36959 H 6.360384975777393 57.49526153058915 102.72870555773355 H 0.0 **** 0.06
36960 H 6.419807228685215 59.270289160501434 102.61322822512432 H 0.0 **** 0.06
36961 C 71.39078323765833 0.6872482519086134 105.02078725815778 C 0.0 **** -0.24
36962 H 70.6935789429537 0.07605896487086738 105.59329607184773 H 0.0 **** 0.06
36963 H 72.40416097140513 0.5244633957901215 105.3905727788516 H 0.0 **** 0.06
36964 H 71.12815004167884 1.7388294823432489 105.13260509577489 H 0.0 **** 0.06
36965 H 71.33829064041106 0.409122342778943 103.96882766677221 H 0.0 **** 0.06
36966 C 96.24653340416313 66.02890648356356 101.16172366297144 C 0.0 **** -0.24
36967 H 96.4522759275485 67.09870618364315 101.18027401325423 H 0.0 **** 0.06
36968 H 95.93379215258119 65.73574887360321 100.15950807534784 H 0.0 **** 0.06
36969 H 95.4522641204274 65.79939985035715 101.87241599711825 H 0.0 **** 0.06
36970 H 97.14857239670584 65.48130588347111 101.43674339664989 H 0.0 **** 0.06
36971 C 93.07446463056459 63.71825494747539 43.59907227408311 C 0.0 **** -0.24
36972 H 92.81812329117707 64.76878363684474 43.73360519156219 H 0.0 **** 0.06
36973 H 93.54881089311482 63.58187900942684 42.62626865264525 H 0.0 **** 0.06
36974 H 92.16899546963293 63.11437105006301 43.6495334866832 H 0.0 **** 0.06
36975 H 93.7625753381198 63.40828417887445 44.38530271745333 H 0.0 **** 0.06
36976 C 65.39567314445719 43.12192356393729 88.8372239657831 C 0.0 **** -0.24
36977 H 66.4790128512188 43.22744796334388 88.89769092262662 H 0.0 **** 0.06
36978 H 65.12726192211166 42.06947700309786 88.9317185990262 H 0.0 **** 0.06
36979 H 65.0473666401929 43.501559913951525 87.87686291178227 H 0.0 **** 0.06
36980 H 64.93116800303972 43.69013469457488 89.64343775106408 H 0.0 **** 0.06
36981 C 37.57656473256628 3.906729835645052 87.57836404233709 C 0.0 **** -0.24
36982 H 36.9853619781303 3.2733804600210874 86.91645584334928 H 0.0 **** 0.06
36983 H 38.54560096184386 3.4401580224834873 87.75635027925063 H 0.0 **** 0.06
36984 H 37.0521087717988 4.031072799004747 88.52526386373754 H 0.0 **** 0.06
36985 H 37.72175399725788 4.881831390439956 87.11299471549115 H 0.0 **** 0.06
36986 C 15.597345571791156 3.3473241611466893 17.57723311516648 C 0.0 **** -0.24
36987 H 16.435810117176313 3.6475902376234046 16.94941944870365 H 0.0 **** 0.06
36988 H 15.39247224829268 4.129130982250729 18.30926974340457 H 0.0 **** 0.06
36989 H 15.846050164202993 2.420840961484032 18.09539476513814 H 0.0 **** 0.06
36990 H 14.71571475225431 3.190482174083529 16.955843352378025 H 0.0 **** 0.06
36991 C 85.7523751910707 105.47011421115116 41.1459830242761 C 0.0 **** -0.24
36992 H 86.48779360836525 105.84072213098695 41.859850699722436 H 0.0 **** 0.06
36993 H 85.40387740467007 106.29392895038478 40.52377801421214 H 0.0 **** 0.06
36994 H 84.90868807949172 105.03856390126813 41.684243112781566 H 0.0 **** 0.06
36995 H 86.21080186145156 104.70771566800623 40.51619972860873 H 0.0 **** 0.06
36996 C 102.9174307820831 4.205494622171912 18.814650507095593 C 0.0 **** -0.24
36997 H 101.87608238284338 4.51685428541407 18.7292382329791 H 0.0 **** 0.06
36998 H 103.38015499611416 4.715011091087234 19.66066758806184 H 0.0 **** 0.06
36999 H 103.44943584797636 4.461923988700789 17.899578907454682 H 0.0 **** 0.06
37000 H 102.96138064075572 3.127595222334918 18.972203283635665 H 0.0 **** 0.06
37001 C 51.95046613513371 55.94066343348124 5.837584641156695 C 0.0 **** -0.24
37002 H 51.101873436416845 56.40491283775776 6.341308324116142 H 0.0 **** 0.06
37003 H 52.218331828311804 55.018043768002 6.353921315796015 H 0.0 **** 0.06
37004 H 52.79848499578104 56.624533734539185 5.850960529525963 H 0.0 **** 0.06
37005 H 51.68120313633467 55.71461132310627 4.805493814032502 H 0.0 **** 0.06
37006 C 3.403509834682353 65.59936489772981 19.27112118157794 C 0.0 **** -0.24
37007 H 3.8984880753396567 65.4874957764241 20.235533628134647 H 0.0 **** 0.06
37008 H 4.0466030884689985 66.16549334473545 18.596372136478266 H 0.0 **** 0.06
37009 H 2.461129192442172 66.13104197676572 19.4055228333643 H 0.0 **** 0.06
37010 H 3.207871790886614 64.61440210483205 18.846833983959385 H 0.0 **** 0.06
37011 C 99.83514480525002 61.089382474270096 101.59118251900202 C 0.0 **** -0.24
37012 H 100.09006878274836 60.46690253719565 100.73321219611887 H 0.0 **** 0.06
37013 H 98.8970294768618 60.743539111106756 102.02450631839133 H 0.0 **** 0.06
37014 H 99.72609550906952 62.12479626079997 101.26716995070387 H 0.0 **** 0.06
37015 H 100.6265540006556 61.02303150027919 102.33705551649467 H 0.0 **** 0.06
37016 C 90.79978793334024 18.502852840197562 80.06000973528944 C 0.0 **** -0.24
37017 H 89.954742947055 17.814610500398715 80.08361101157953 H 0.0 **** 0.06
37018 H 90.4339469881839 19.52842768413001 80.11939203183397 H 0.0 **** 0.06
37019 H 91.35264843327687 18.367609467485124 79.13028285859892 H 0.0 **** 0.06
37020 H 91.45596905655215 18.301852426571656 80.90610999576148 H 0.0 **** 0.06
37021 C 40.25809972278864 100.24231431029568 105.21799730214912 C 0.0 **** -0.24
37022 H 39.865469060780015 101.13681580148955 104.73540042292969 H 0.0 **** 0.06
37023 H 41.33738667312042 100.33777206828415 105.33841354047834 H 0.0 **** 0.06
37024 H 40.03671984218397 99.37012901517193 104.60106826286345 H 0.0 **** 0.06
37025 H 39.7916260138316 100.12312950894409 106.19585148880816 H 0.0 **** 0.06
37026 C 32.36920667926649 21.86384852539153 40.46942043487155 C 0.0 **** -0.24
37027 H 33.43724033247727 21.966523407358004 40.6603118023757 H 0.0 **** 0.06
37028 H 31.927993379214115 22.85178967662474 40.33145394503805 H 0.0 **** 0.06
37029 H 31.894863790959903 21.369061469917735 41.317687621785524 H 0.0 **** 0.06
37030 H 32.21594793550976 21.267524454987665 39.56929823020164 H 0.0 **** 0.06
37031 C 9.997682731162584 95.46290388598214 60.42776136305952 C 0.0 **** -0.24
37032 H 9.837279733163172 95.10007905452112 59.4124867317704 H 0.0 **** 0.06
37033 H 9.228719668265995 95.05688310235837 61.084227987196726 H 0.0 **** 0.06
37034 H 9.944817216105719 96.55204561192835 60.436544816665275 H 0.0 **** 0.06
37035 H 10.979572189932469 95.143521306322 60.77676193891929 H 0.0 **** 0.06
37036 C 10.807732779228957 68.10822935424272 21.99918478471608 C 0.0 **** -0.24
37037 H 10.670239476505088 67.4933238720397 21.110254898270398 H 0.0 **** 0.06
37038 H 11.089354878065677 67.47301007968697 22.83993629995041 H 0.0 **** 0.06
37039 H 9.877053508890981 68.62633115217338 22.230440433663375 H 0.0 **** 0.06
37040 H 11.595366409618663 68.83944137562973 21.816518927583104 H 0.0 **** 0.06
37041 C 87.15087744453206 11.508451395946818 88.66184577349277 C 0.0 **** -0.24
37042 H 87.20547803662915 11.72603342666833 89.72821266763974 H 0.0 **** 0.06
37043 H 86.1927893970255 11.851581863078941 88.26916724053775 H 0.0 **** 0.06
37044 H 87.24432980622525 10.433416738594108 88.50497401341667 H 0.0 **** 0.06
37045 H 87.96175173719921 12.02239023817975 88.14464333581009 H 0.0 **** 0.06
37046 C 30.049681314613053 47.05707619404578 10.993103334256944 C 0.0 **** -0.24
37047 H 29.08978649671667 46.5634934043195 11.14380005385783 H 0.0 **** 0.06
37048 H 30.312568294819584 47.024043234874426 9.935302373502878 H 0.0 **** 0.06
37049 H 30.816279180057194 46.546633503508474 11.574914685450466 H 0.0 **** 0.06
37050 H 29.97891642755806 48.09588426180346 11.317147686060451 H 0.0 **** 0.06
37051 C 31.499085036945814 11.451168688256672 36.9162243745904 C 0.0 **** -0.24
37052 H 30.515016642517196 11.864385984273326 37.14085407097821 H 0.0 **** 0.06
37053 H 32.231381699883514 12.256979059636066 36.88228738131414 H 0.0 **** 0.06
37054 H 31.46813197255983 10.946042482795988 35.95013428843146 H 0.0 **** 0.06
37055 H 31.778181324543823 10.737124960744026 37.6907192698292 H 0.0 **** 0.06
37056 C 19.193482393134893 72.92282282972737 30.491415835456564 C 0.0 **** -0.24
37057 H 18.11823491129796 72.74017478772451 30.480271904430595 H 0.0 **** 0.06
37058 H 19.41052579304563 73.77521438756952 31.13557915212857 H 0.0 **** 0.06
37059 H 19.534952652978635 73.13617434563432 29.478772899394414 H 0.0 **** 0.06
37060 H 19.707515256494915 72.04021261466048 30.869826832151745 H 0.0 **** 0.06
37061 C 44.73037861716135 10.553581302500845 70.92521074086233 C 0.0 **** -0.24
37062 H 44.851364330862 11.143132084736958 70.01601828146352 H 0.0 **** 0.06
37063 H 44.8537205206089 11.19848354395766 71.7949712821154 H 0.0 **** 0.06
37064 H 45.481507878678315 9.763499792004708 70.9477859628972 H 0.0 **** 0.06
37065 H 43.73532835305684 10.108833045699651 70.94042643135407 H 0.0 **** 0.06
37066 C 28.006083341788987 60.119166292571094 8.841891389288591 C 0.0 **** -0.24
37067 H 27.939144264131983 61.10714036639695 8.385629424848375 H 0.0 **** 0.06
37068 H 28.903235739132214 60.065144649617764 9.459615328444386 H 0.0 **** 0.06
37069 H 28.0571372873326 59.36094346789298 8.060619871166267 H 0.0 **** 0.06
37070 H 27.126973272617178 59.94446335562594 9.462242039517164 H 0.0 **** 0.06
37071 C 97.77027612890205 21.75232604347649 81.44472294195202 C 0.0 **** -0.24
37072 H 97.0109523773859 22.262725379682465 82.03828977557691 H 0.0 **** 0.06
37073 H 97.78093547903421 22.166012070126662 80.43651523383727 H 0.0 **** 0.06
37074 H 97.541011531809 20.68832424486915 81.39990787991678 H 0.0 **** 0.06
37075 H 98.7473414428586 21.894436659294204 81.90651131247785 H 0.0 **** 0.06
37076 C 86.87272336711199 102.5876012882338 100.17038040094604 C 0.0 **** -0.24
37077 H 87.50813675742367 103.26991503312175 99.60378490336132 H 0.0 **** 0.06
37078 H 86.73527707206209 101.66555658909718 99.60488266872159 H 0.0 **** 0.06
37079 H 85.90461435427329 103.05568063413858 100.34662789506939 H 0.0 **** 0.06
37080 H 87.34636444038699 102.3605553778159 101.12598068176646 H 0.0 **** 0.06
37081 C 70.28669916108694 101.31546587997389 87.4421623308065 C 0.0 **** -0.24
37082 H 69.77800912437556 101.79645144949501 88.27772255743226 H 0.0 **** 0.06
37083 H 70.61224738196881 100.31865028135704 87.74081532839207 H 0.0 **** 0.06
37084 H 71.15309886240414 101.90982373238597 87.15370297662638 H 0.0 **** 0.06
37085 H 69.6021388687617 101.2356655972975 86.597706485396 H 0.0 **** 0.06
37086 C 73.96277583222673 40.688619234217754 110.56436295900838 C 0.0 **** -0.24
37087 H 74.31560291374916 39.93634321074231 111.26907377049537 H 0.0 **** 0.06
37088 H 72.88675466775777 40.81962556271279 110.68163352518769 H 0.0 **** 0.06
37089 H 74.18066238139454 40.364455536063275 109.5468911482269 H 0.0 **** 0.06
37090 H 74.46808336600549 41.634052627352816 110.75985339212349 H 0.0 **** 0.06
37091 C 2.2285847561811067 39.78882909640615 77.37497592218887 C 0.0 **** -0.24
37092 H 1.4178184065539483 40.22464657377239 76.7915587632088 H 0.0 **** 0.06
37093 H 2.120724397663011 40.07974600947057 78.42070062007951 H 0.0 **** 0.06
37094 H 3.1845647848070087 40.150079795084 76.99403136950153 H 0.0 **** 0.06
37095 H 2.1925216146782986 38.70258169471251 77.29476020307791 H 0.0 **** 0.06
37096 C 18.40523062082218 102.97189800466586 109.9580630991168 C 0.0 **** -0.24
37097 H 17.916333826202816 103.6648829536432 110.64314365363902 H 0.0 **** 0.06
37098 H 19.484138574050718 103.01257512944653 110.10851763459785 H 0.0 **** 0.06
37099 H 18.169997565773258 103.25046203041359 108.9302512888747 H 0.0 **** 0.06
37100 H 18.048218166783812 101.95960209336681 110.1503953942219 H 0.0 **** 0.06
37101 C 56.699651381975926 29.583081416769744 13.853669160629607 C 0.0 **** -0.24
37102 H 56.09136354428199 29.5881722781308 12.949847564680454 H 0.0 **** 0.06
37103 H 57.30403505348883 30.489922238131186 13.890202789480327 H 0.0 **** 0.06
37104 H 57.352074213969374 28.710408986903758 13.847282901821472 H 0.0 **** 0.06
37105 H 56.049819644055674 29.545274651386308 14.728423389356067 H 0.0 **** 0.06
37106 C 64.03432519512455 64.51872674291717 21.677145864273697 C 0.0 **** -0.24
37107 H 63.05419002864494 64.13654175485084 21.39326349438062 H 0.0 **** 0.06
37108 H 64.08066545593493 65.5875941744763 21.471679379392743 H 0.0 **** 0.06
37109 H 64.8050581383651 64.00412999103679 21.102165392059007 H 0.0 **** 0.06
37110 H 64.19729890148074 64.34445381968622 22.741018559000416 H 0.0 **** 0.06
37111 C 95.0878742189889 102.31632045162971 49.565782777612924 C 0.0 **** -0.24
37112 H 95.43924726192726 101.36306647396822 49.96087821122035 H 0.0 **** 0.06
37113 H 94.54404397553033 102.14479591420704 48.63625138173202 H 0.0 **** 0.06
37114 H 95.9406314923364 102.9671656282211 49.374358888874866 H 0.0 **** 0.06
37115 H 94.42590186137636 102.78780050158375 50.292073152374 H 0.0 **** 0.06
37116 C 82.48245917411168 36.392036565371995 45.984198607455426 C 0.0 **** -0.24
37117 H 83.54278739950814 36.59319676685385 45.831557919855356 H 0.0 **** 0.06
37118 H 82.25817395390459 35.370503028580856 45.67387290275637 H 0.0 **** 0.06
37119 H 81.89114539226017 37.08983999115668 45.39257469052788 H 0.0 **** 0.06
37120 H 82.2377498902855 36.5132733038505 47.03926047908792 H 0.0 **** 0.06
37121 C 62.477233852339225 50.49439916436006 76.60429834401683 C 0.0 **** -0.24
37122 H 62.883736897633014 50.565712843366725 75.59555051818882 H 0.0 **** 0.06
37123 H 62.39679750815458 51.492708697446005 77.03460013728301 H 0.0 **** 0.06
37124 H 63.14045099631039 49.8856172830628 77.2199941110847 H 0.0 **** 0.06
37125 H 61.490753534643645 50.03338662397317 76.56671487851867 H 0.0 **** 0.06
37126 C 0.8994711792021821 4.778992873338893 94.28625945938887 C 0.0 **** -0.24
37127 H 1.6897732940892158 5.388413270121191 94.72520812638322 H 0.0 **** 0.06
37128 H 0.9113100395950386 4.896403996249134 93.20242780596607 H 0.0 **** 0.06
37129 H -0.06674014951077112 5.100607639490221 94.67621101943212 H 0.0 **** 0.06
37130 H 1.0642378962339123 3.7324536146505665 94.54025354406656 H 0.0 **** 0.06
37131 C 24.746337100508825 39.224923366352385 17.71638910185206 C 0.0 **** -0.24
37132 H 25.579404245568895 38.717394454424664 18.202487936220876 H 0.0 **** 0.06
37133 H 24.800656683469214 39.06311790740148 16.639860455111773 H 0.0 **** 0.06
37134 H 24.799721328666294 40.292990954032206 17.92724759742869 H 0.0 **** 0.06
37135 H 23.80633756055755 38.82639299657973 18.097497929841794 H 0.0 **** 0.06
37136 C 22.74754626176295 5.566652341739269 105.39284671702075 C 0.0 **** -0.24
37137 H 22.748798511630866 4.497355959653955 105.18012797281312 H 0.0 **** 0.06
37138 H 22.549322528307044 6.119271859850409 104.47460243597658 H 0.0 **** 0.06
37139 H 23.719576937851627 5.858444742637264 105.79162756585481 H 0.0 **** 0.06
37140 H 21.972227761336683 5.788740552128154 106.12608447009069 H 0.0 **** 0.06
37141 C 110.61469561096919 113.46528978167409 88.45469306106823 C 0.0 **** -0.24
37142 H 110.54547970100504 112.4513598659169 88.06149870636511 H 0.0 **** 0.06
37143 H 110.78874497046439 114.16156791177522 87.63370024849091 H 0.0 **** 0.06
37144 H 111.4409586356586 113.52404094614634 89.16369962766866 H 0.0 **** 0.06
37145 H 109.68418021929782 113.72439236882305 88.95908523947409 H 0.0 **** 0.06
37146 C 39.710174300949745 4.522068004658184 84.31722568520564 C 0.0 **** -0.24
37147 H 40.75177531126781 4.5142016996861845 84.63930959741711 H 0.0 **** 0.06
37148 H 39.52088230501546 5.417212883456948 83.72386087108936 H 0.0 **** 0.06
37149 H 39.05901276855758 4.520359924127327 85.19073254508453 H 0.0 **** 0.06
37150 H 39.51007212206062 3.637118897740846 83.7128733308517 H 0.0 **** 0.06
37151 C 74.1458775332137 105.86575591126928 88.19150777312521 C 0.0 **** -0.24
37152 H 73.90745653382274 106.72286097308165 87.56043013377966 H 0.0 **** 0.06
37153 H 73.22314379403548 105.38301587207866 88.51129673139305 H 0.0 **** 0.06
37154 H 74.70235398256429 106.2026617819023 89.06659119631799 H 0.0 **** 0.06
37155 H 74.75164788530932 105.15710747277217 87.62674833340135 H 0.0 **** 0.06
37156 C 35.557356047941695 10.852234482391182 55.06894649170323 C 0.0 **** -0.24
37157 H 35.985890137879 11.626850739637945 54.431670383568814 H 0.0 **** 0.06
37158 H 34.48047666282293 11.000876304049171 55.147029390799275 H 0.0 **** 0.06
37159 H 36.00618940225953 10.910151853339158 56.060608610492494 H 0.0 **** 0.06
37160 H 35.7593269532708 9.872362436510755 54.63467334878419 H 0.0 **** 0.06
37161 C 81.71436571763137 94.45948511992015 66.11872281684501 C 0.0 **** -0.24
37162 H 82.0918093110612 93.46420021099406 65.88333195347279 H 0.0 **** 0.06
37163 H 80.70441979232194 94.37814184308887 66.5221012033658 H 0.0 **** 0.06
37164 H 81.69603545339969 95.06501480167694 65.21287772574651 H 0.0 **** 0.06
37165 H 82.36375311736691 94.9286548977384 66.85701829337054 H 0.0 **** 0.06
37166 C 87.24013383779226 113.04532937012284 32.76742848520932 C 0.0 **** -0.24
37167 H 87.58968268892649 112.90393556866853 31.745033301503952 H 0.0 **** 0.06
37168 H 87.98283989530536 113.61123487938508 33.330222629685636 H 0.0 **** 0.06
37169 H 87.09079339042053 112.07303642229681 33.2382835372714 H 0.0 **** 0.06
37170 H 86.29734162758926 113.59170571682449 32.756281445124756 H 0.0 **** 0.06
37171 C 68.7125832720468 76.58559831360199 7.383231424955397 C 0.0 **** -0.24
37172 H 67.74881111222774 76.12863766397703 7.1590535207826065 H 0.0 **** 0.06
37173 H 68.55483026315966 77.58467907155153 7.789626783283708 H 0.0 **** 0.06
37174 H 69.30289852930565 76.65293115821368 6.469196546049361 H 0.0 **** 0.06
37175 H 69.24212286476364 75.97497355015855 8.113693402678152 H 0.0 **** 0.06
37176 C 72.64876367609486 65.58578627401823 10.445389220756496 C 0.0 **** -0.24
37177 H 72.24968088569102 64.60607768460773 10.70893729230363 H 0.0 **** 0.06
37178 H 72.65613853286777 65.69560961242222 9.360693395730763 H 0.0 **** 0.06
37179 H 73.66600294977667 65.67684255377803 10.826727115419985 H 0.0 **** 0.06
37180 H 72.02366067508979 66.36252475161793 10.886401869306354 H 0.0 **** 0.06
37181 C 48.82086869023262 36.379775075544785 107.81027736324484 C 0.0 **** -0.24
37182 H 48.70784240832727 36.488842672740816 108.88841966080038 H 0.0 **** 0.06
37183 H 48.604930707651405 35.35016251565469 107.52530313779265 H 0.0 **** 0.06
37184 H 49.84288099485792 36.62972193171154 107.52543710412706 H 0.0 **** 0.06
37185 H 48.12823568100236 37.05018726553581 107.30284019117943 H 0.0 **** 0.06
37186 C 99.30418178789103 45.74265486464181 115.52454649568561 C 0.0 **** -0.24
37187 H 99.17284602320223 45.644724574856724 114.4465598657021 H 0.0 **** 0.06
37188 H 100.1184577980543 46.438560973892265 115.72945596266278 H 0.0 **** 0.06
37189 H 99.54318218942751 44.76756957770252 115.95121281825433 H 0.0 **** 0.06
37190 H 98.38340536355008 46.11796424864845 115.97032127842526 H 0.0 **** 0.06
37191 C 81.66043228107772 68.60114407256164 9.319056796764418 C 0.0 **** -0.24
37192 H 81.37754975626636 69.35346602603971 8.582333139141618 H 0.0 **** 0.06
37193 H 82.15288531419583 67.76885835754827 8.816822771929488 H 0.0 **** 0.06
37194 H 80.76865207521334 68.24066465379971 9.83238636203193 H 0.0 **** 0.06
37195 H 82.34335522757357 69.04368858596436 10.04496052136087 H 0.0 **** 0.06
37196 C 41.208555227887054 83.09682137279698 17.975115945722223 C 0.0 **** -0.24
37197 H 42.254071992917424 82.79751743178166 18.03536789693041 H 0.0 **** 0.06
37198 H 40.916113189719205 83.58337033787797 18.905900744708504 H 0.0 **** 0.06
37199 H 40.58633703687744 82.21622822898534 17.813942688218873 H 0.0 **** 0.06
37200 H 41.07729846936321 83.79173814898446 17.144636572061216 H 0.0 **** 0.06
37201 C 87.89152575598325 53.65876365628708 115.13393430439118 C 0.0 **** -0.24
37202 H 88.139138315882 54.64969419363223 114.75393138444821 H 0.0 **** 0.06
37203 H 87.00916509916094 53.722824315499565 115.76989688274867 H 0.0 **** 0.06
37204 H 88.7305140277828 53.27337097128225 115.71365901095601 H 0.0 **** 0.06
37205 H 87.68972845305379 52.98934560784585 114.29826222323445 H 0.0 **** 0.06
37206 C 49.36143464756884 21.814376792611938 28.065830385360982 C 0.0 **** -0.24
37207 H 50.0339227682332 22.621369659215986 27.775317421728403 H 0.0 **** 0.06
37208 H 49.93777546031504 21.002554243830772 28.508763712017696 H 0.0 **** 0.06
37209 H 48.83162624610648 21.447853561561573 27.186307013802377 H 0.0 **** 0.06
37210 H 48.64065816560958 22.188277326033685 28.794127921579246 H 0.0 **** 0.06
37211 C 86.50877320353399 14.939212685684382 112.87397650176277 C 0.0 **** -0.24
37212 H 87.20681742766125 14.129914597253048 112.65709753670126 H 0.0 **** 0.06
37213 H 86.28572456335307 15.481595738461166 111.95512804387627 H 0.0 **** 0.06
37214 H 86.95571514996057 15.618382211680455 113.59937236324811 H 0.0 **** 0.06
37215 H 85.58784328831148 14.52349948122962 113.28415724015562 H 0.0 **** 0.06
37216 C 53.75073221170314 23.793685574852503 25.65028706469451 C 0.0 **** -0.24
37217 H 53.88549830385375 24.720404158912785 26.20827571412343 H 0.0 **** 0.06
37218 H 53.7007963496971 24.016651697565294 24.583866346048126 H 0.0 **** 0.06
37219 H 52.82507807118799 23.311319439161394 25.96476106155791 H 0.0 **** 0.06
37220 H 54.591464867778456 23.127340578347315 25.844035656597782 H 0.0 **** 0.06
37221 C 71.3511608756182 37.822029200122046 93.67145680535873 C 0.0 **** -0.24
37222 H 70.87690024280857 37.5581559618166 92.7267376617192 H 0.0 **** 0.06
37223 H 72.40934753458916 37.56175844901518 93.6322300511041 H 0.0 **** 0.06
37224 H 70.8726883017568 37.275102690053494 94.48348384051116 H 0.0 **** 0.06
37225 H 71.2465322134446 38.89308396409594 93.84281039780791 H 0.0 **** 0.06
37226 C 32.97880155466447 104.52398490471887 23.841282222022883 C 0.0 **** -0.24
37227 H 34.05035333380087 104.33234447614126 23.897560865328686 H 0.0 **** 0.06
37228 H 32.56487866815954 104.0173886097848 22.969690249781696 H 0.0 **** 0.06
37229 H 32.806305799624184 105.59753524857786 23.754913708919908 H 0.0 **** 0.06
37230 H 32.496163967412826 104.1499778354023 24.74322020427082 H 0.0 **** 0.06
37231 C 5.030760272550822 48.9881480669261 90.49379343257476 C 0.0 **** -0.24
37232 H 4.515895013002421 49.93233209084707 90.67242117100722 H 0.0 **** 0.06
37233 H 5.931630307459969 49.17102840383228 89.90708432120877 H 0.0 **** 0.06
37234 H 4.371464882462064 48.31375629509688 89.94616951718922 H 0.0 **** 0.06
37235 H 5.302282838826713 48.536635165293944 91.44737042541584 H 0.0 **** 0.06
37236 C 3.5552375332439965 83.8926003963906 113.51521272694723 C 0.0 **** -0.24
37237 H 4.42268750201012 84.45416959285853 113.86322880599437 H 0.0 **** 0.06
37238 H 3.5366391974245914 83.89212724521445 112.42546806875762 H 0.0 **** 0.06
37239 H 2.6454578353182683 84.35718592957329 113.89544783656204 H 0.0 **** 0.06
37240 H 3.6182793919878122 82.86701202801044 113.87883309552177 H 0.0 **** 0.06
37241 C 24.56661370161268 55.14298676545846 76.11810203116539 C 0.0 **** -0.24
37242 H 23.762690962560953 54.64815474932291 75.57205429632859 H 0.0 **** 0.06
37243 H 24.930062267051426 54.48315216042843 76.90603540431982 H 0.0 **** 0.06
37244 H 24.190200634184066 56.06530123826877 76.56046587043568 H 0.0 **** 0.06
37245 H 25.38172345220343 55.375019293881536 75.43253397286122 H 0.0 **** 0.06
37246 C 105.23425284054554 65.87851411313977 58.728264507377475 C 0.0 **** -0.24
37247 H 104.68926857122699 64.96144248848634 58.95142660106525 H 0.0 **** 0.06
37248 H 106.06880164990895 65.65337253949951 58.064242587728984 H 0.0 **** 0.06
37249 H 105.6133601245491 66.31001447150447 59.65552215988731 H 0.0 **** 0.06
37250 H 104.56492858211476 66.58979777560629 58.244738788550535 H 0.0 **** 0.06
37251 C 78.2938770183149 72.67196168135845 109.76980699144337 C 0.0 **** -0.24
37252 H 79.15062241144136 71.99947097784413 109.81701039064808 H 0.0 **** 0.06
37253 H 78.63908398364856 73.70466965160713 109.83237724604831 H 0.0 **** 0.06
37254 H 77.62102215820795 72.46255609933432 110.60081610090924 H 0.0 **** 0.06
37255 H 77.76611674021706 72.52170491187012 108.82732005816618 H 0.0 **** 0.06
37256 C 35.152614491546785 4.83580862350324 4.588715041516517 C 0.0 **** -0.24
37257 H 36.08922929070545 5.38591329533115 4.50590173595031 H 0.0 **** 0.06
37258 H 35.36450475127637 3.776133715664457 4.732399353878858 H 0.0 **** 0.06
37259 H 34.57054916142101 4.9691964226211525 3.6756102673620585 H 0.0 **** 0.06
37260 H 34.58418205366158 5.211386548875694 5.439658840911804 H 0.0 **** 0.06
37261 C 83.85067769133092 34.94566779296364 65.98775388889956 C 0.0 **** -0.24
37262 H 83.39811355053077 35.270047352250565 65.05104896356313 H 0.0 **** 0.06
37263 H 84.39300495725388 35.77852594306736 66.43592464038011 H 0.0 **** 0.06
37264 H 84.54198772798988 34.125880533590276 65.79182571149099 H 0.0 **** 0.06
37265 H 83.07097919142565 34.60915954388688 66.67072531883029 H 0.0 **** 0.06
37266 C 20.75324785609098 93.13950574759718 28.181958014808615 C 0.0 **** -0.24
37267 H 20.475280211020902 92.08566463814304 28.171689133580365 H 0.0 **** 0.06
37268 H 19.882491583649028 93.74184203991265 28.44009757787184 H 0.0 **** 0.06
37269 H 21.11725490348772 93.42834934347081 27.19548710548238 H 0.0 **** 0.06
37270 H 21.539255061583617 93.30070157915571 28.920124773649185 H 0.0 **** 0.06
37271 C 86.76430884730252 113.15812897262367 104.6519957625159 C 0.0 **** -0.24
37272 H 86.20423425441001 112.88644625766077 105.54701281955646 H 0.0 **** 0.06
37273 H 86.20541023156255 112.85008103245072 103.76691017221574 H 0.0 **** 0.06
37274 H 87.73253481199714 112.65704346746189 104.66319328048638 H 0.0 **** 0.06
37275 H 86.91297281318128 114.23767678903607 104.63063962699952 H 0.0 **** 0.06
37276 C 36.97940545388758 113.06274359722161 49.59532912285829 C 0.0 **** -0.24
37277 H 36.570056949354466 113.55908544199299 48.71591620345589 H 0.0 **** 0.06
37278 H 36.37007867829277 113.3044410462378 50.46604420999864 H 0.0 **** 0.06
37279 H 38.0019515821549 113.40198077763584 49.76123002996616 H 0.0 **** 0.06
37280 H 36.975933719917066 111.98420981474732 49.437616148499956 H 0.0 **** 0.06
37281 C 45.343946378068495 92.10035921920834 38.39559939502965 C 0.0 **** -0.24
37282 H 46.2185273787872 91.7098125732656 37.876135347346406 H 0.0 **** 0.06
37283 H 45.23082087315731 91.58853759861677 39.351652658413855 H 0.0 **** 0.06
37284 H 44.45494594633601 91.93289711194687 37.7864472755125 H 0.0 **** 0.06
37285 H 45.470919071993194 93.16861997273784 38.567705131590856 H 0.0 **** 0.06
37286 C 30.54457504022364 10.673552874580366 43.26361541669914 C 0.0 **** -0.24
37287 H 31.149370406063618 9.919651193050925 43.76912453049738 H 0.0 **** 0.06
37288 H 31.19943646880307 11.407701324532923 42.79270226044025 H 0.0 **** 0.06
37289 H 29.902816413227455 11.17063540284147 43.99056475399033 H 0.0 **** 0.06
37290 H 29.92902629345504 10.194214022897427 42.50273531350729 H 0.0 **** 0.06
37291 C 70.15155686534338 21.206806785221943 39.63208092498415 C 0.0 **** -0.24
37292 H 69.30680506992259 20.67736174780424 39.18992825300812 H 0.0 **** 0.06
37293 H 69.86951765061372 21.58225023941813 40.61596947207327 H 0.0 **** 0.06
37294 H 70.43318570314142 22.04199076723785 38.990540212188 H 0.0 **** 0.06
37295 H 70.99497581223763 20.524282278313024 39.73148551883883 H 0.0 **** 0.06
37296 C 14.049182791931209 10.483458268570217 62.726307244983204 C 0.0 **** -0.24
37297 H 13.406211944043914 9.644459900620422 62.99290956823188 H 0.0 **** 0.06
37298 H 15.020212287898694 10.364098588051885 63.20678152416832 H 0.0 **** 0.06
37299 H 13.590007815676174 11.413612183007643 63.059192388852466 H 0.0 **** 0.06
37300 H 14.180216839802043 10.510795630053032 61.64428583375289 H 0.0 **** 0.06
37301 C 39.93510473139226 93.89793654608371 55.99001957547765 C 0.0 **** -0.24
37302 H 39.90452300596751 94.57651427859312 55.13836794824788 H 0.0 **** 0.06
37303 H 40.07765113971163 92.87688508964368 55.635713188659054 H 0.0 **** 0.06
37304 H 38.99650433291717 93.96359932625836 56.53993431602686 H 0.0 **** 0.06
37305 H 40.760980373516055 94.17439497987425 56.64551688018058 H 0.0 **** 0.06
37306 C 24.815283570639053 79.13571162659656 28.745989672123414 C 0.0 **** -0.24
37307 H 24.11548023195462 79.34030926946122 29.556399235134904 H 0.0 **** 0.06
37308 H 25.73686572431012 79.6943347517859 28.912927256077694 H 0.0 **** 0.06
37309 H 24.371321045574888 79.44058426380911 27.797961431174087 H 0.0 **** 0.06
37310 H 25.036121550679297 78.06930938308795 28.71782372913691 H 0.0 **** 0.06
37311 C 20.693112554953487 48.48174570703816 36.14336614581558 C 0.0 **** -0.24
37312 H 21.53930527137379 47.97810273177544 36.61212863379018 H 0.0 **** 0.06
37313 H 20.287492190638034 49.22510822443826 36.82967062885825 H 0.0 **** 0.06
37314 H 19.922539331539397 47.74889525666134 35.90218419970864 H 0.0 **** 0.06
37315 H 21.025838127401926 48.973168645382145 35.228669044540254 H 0.0 **** 0.06
37316 C 33.69623781164955 25.893523448617373 100.22979018401952 C 0.0 **** -0.24
37317 H 33.42088704349925 26.8743871799864 100.61709089192982 H 0.0 **** 0.06
37318 H 33.738897479775005 25.93269447348814 99.14152077165483 H 0.0 **** 0.06
37319 H 32.95084491339517 25.15990506915483 100.53876125230232 H 0.0 **** 0.06
37320 H 34.671784225851525 25.608998743068298 100.62277921945437 H 0.0 **** 0.06
37321 C 63.32840826630466 12.740378041520216 84.52873680474754 C 0.0 **** -0.24
37322 H 63.360762727035564 13.812199180593268 84.7234395760776 H 0.0 **** 0.06
37323 H 62.934535018645335 12.223897535069455 85.40470676337961 H 0.0 **** 0.06
37324 H 64.33519576073608 12.379313360558058 84.31616245911937 H 0.0 **** 0.06
37325 H 62.68327798134159 12.54643811258262 83.67157007742786 H 0.0 **** 0.06
37326 C 101.91257152750461 12.71307240845806 100.19767032888238 C 0.0 **** -0.24
37327 H 101.65900105790735 12.110783319822872 99.32445929656713 H 0.0 **** 0.06
37328 H 102.60259367726346 13.50455380671714 99.90499270651824 H 0.0 **** 0.06
37329 H 102.38266055544847 12.079732647305988 100.95007421859265 H 0.0 **** 0.06
37330 H 101.00534033863897 13.154749701789171 100.60930519563163 H 0.0 **** 0.06
37331 C 49.67475814564391 11.010617582841192 27.89396856617705 C 0.0 **** -0.24
37332 H 50.43994864678821 10.493865863575081 27.313809303258438 H 0.0 **** 0.06
37333 H 49.79707253372952 10.769196594532062 28.94993194737532 H 0.0 **** 0.06
37334 H 48.68777889444636 10.689685551512653 27.55947163808142 H 0.0 **** 0.06
37335 H 49.77509976453265 12.08661612699359 27.75188675022455 H 0.0 **** 0.06
37336 C 113.98856118949305 104.14365064233283 37.11297104649486 C 0.0 **** -0.24
37337 H 114.9179607451547 104.46423364116907 36.642826885704864 H 0.0 **** 0.06
37338 H 113.33986645605258 103.69128306552608 36.3626129361422 H 0.0 **** 0.06
37339 H 113.48898830801099 105.0053008112136 37.55389550884598 H 0.0 **** 0.06
37340 H 114.20889795013242 103.4130722827876 37.89072259727976 H 0.0 **** 0.06
37341 C 86.14415116419997 101.1057223743419 42.7140470339684 C 0.0 **** -0.24
37342 H 86.41350230559793 101.06220058414544 41.65884925238677 H 0.0 **** 0.06
37343 H 85.91953580074242 100.10110265687473 43.072606270158815 H 0.0 **** 0.06
37344 H 85.2674271379326 101.74126062838963 42.83972789004403 H 0.0 **** 0.06
37345 H 86.9770184636962 101.5182153799692 43.28454085769502 H 0.0 **** 0.06
37346 C 87.9262719391848 89.24715803256265 84.36274985928227 C 0.0 **** -0.24
37347 H 87.26646637228646 89.12338497752353 85.2221603922001 H 0.0 **** 0.06
37348 H 88.90658736554332 89.58107431085801 84.70393483090848 H 0.0 **** 0.06
37349 H 87.50474940682614 89.98846871320433 83.68533073432634 H 0.0 **** 0.06
37350 H 88.02717149579007 88.29505602104194 83.8426666544119 H 0.0 **** 0.06
37351 C 14.101724813097519 66.06699456334387 53.53796860140243 C 0.0 **** -0.24
37352 H 13.642099111574197 65.25893748665659 54.10761811130485 H 0.0 **** 0.06
37353 H 14.500828928781203 65.67117506367681 52.603993017116956 H 0.0 **** 0.06
37354 H 14.910609276746612 66.50707600602277 54.12155649308102 H 0.0 **** 0.06
37355 H 13.354336723417532 66.82902900041789 53.320931699237775 H 0.0 **** 0.06
37356 C 104.50879043302245 84.50075429256606 94.04644720749855 C 0.0 **** -0.24
37357 H 105.48062612570618 84.0192956317679 93.93806596632038 H 0.0 **** 0.06
37358 H 104.64453601923006 85.58107444272883 94.104430889236 H 0.0 **** 0.06
37359 H 104.02635077480394 84.14504890553187 94.95672364636232 H 0.0 **** 0.06
37360 H 103.88576724982106 84.25717989524333 93.18598734934122 H 0.0 **** 0.06
37361 C 71.54491104691739 62.8739108263286 95.68528147798581 C 0.0 **** -0.24
37362 H 72.53760755525698 62.423417231710175 95.67693054832755 H 0.0 **** 0.06
37363 H 71.59229153001289 63.865732954570774 95.23640234871581 H 0.0 **** 0.06
37364 H 71.19175674208986 62.95614181204246 96.71318500166787 H 0.0 **** 0.06
37365 H 70.85735658170907 62.24912472674475 95.11429741634812 H 0.0 **** 0.06
37366 C 83.0078260411566 14.579126010684831 45.77736440051831 C 0.0 **** -0.24
37367 H 82.3821970768873 13.731090299703112 46.05600106800347 H 0.0 **** 0.06
37368 H 84.00503828001764 14.223618559337353 45.517726645068095 H 0.0 **** 0.06
37369 H 83.07590733596246 15.271362346283922 46.616328835705005 H 0.0 **** 0.06
37370 H 82.5689946065906 15.088465275919532 44.9200605018722 H 0.0 **** 0.06
37371 C 14.95997908773839 34.30300898902725 0.30621191278430615 C 0.0 **** -0.24
37372 H 15.6966564718862 33.512137875794394 0.1646920430482055 H 0.0 **** 0.06
37373 H 15.159018525402786 34.82038780342859 1.2453477311730126 H 0.0 **** 0.06
37374 H 13.96150421438361 33.86675811209588 0.33563393675234465 H 0.0 **** 0.06
37375 H 15.023125521969092 35.010674467947666 -0.519588046956585 H 0.0 **** 0.06
37376 C 25.73107498438707 9.227469992777287 109.96517574964342 C 0.0 **** -0.24
37377 H 24.98266865954841 9.792247560739327 109.40965905139615 H 0.0 **** 0.06
37378 H 25.53690478250489 8.16046385913242 109.8541288126377 H 0.0 **** 0.06
37379 H 25.681705942903307 9.498744485447247 111.01918966665177 H 0.0 **** 0.06
37380 H 26.72247663861387 9.460060242907815 109.57630161173898 H 0.0 **** 0.06
37381 C 99.52604436440296 17.196491497511516 11.723834299816986 C 0.0 **** -0.24
37382 H 99.80032436487143 16.49014068417131 12.507369597791865 H 0.0 **** 0.06
37383 H 98.9923414195224 18.038507467617478 12.165356513171105 H 0.0 **** 0.06
37384 H 98.88500122889997 16.700169736874813 10.99528577037944 H 0.0 **** 0.06
37385 H 100.42824337953698 17.557886139421527 11.22889138834256 H 0.0 **** 0.06
37386 C 82.02619735163233 62.686679380652436 14.911438614472758 C 0.0 **** -0.24
37387 H 82.80155666004032 62.40840462420692 14.197410830043196 H 0.0 **** 0.06
37388 H 81.0450556150609 62.49898976713095 14.474197137090698 H 0.0 **** 0.06
37389 H 82.11978783835855 63.745219701468926 15.1555898138202 H 0.0 **** 0.06
37390 H 82.13906619074174 62.09355671440437 15.819049595465884 H 0.0 **** 0.06
37391 C 34.53992832382521 7.868810855534491 35.27183600079513 C 0.0 **** -0.24
37392 H 34.70932866488755 8.131263232382025 36.31664167204406 H 0.0 **** 0.06
37393 H 33.473509953929636 7.719767629968288 35.10282260745353 H 0.0 **** 0.06
37394 H 35.077708256143794 6.950272838186294 35.03661224015016 H 0.0 **** 0.06
37395 H 34.90122981385343 8.674399765788735 34.63250486291179 H 0.0 **** 0.06
37396 C 79.30514350999061 76.79150721747527 79.49185473409834 C 0.0 **** -0.24
37397 H 80.15538084773863 77.43592901469748 79.26811922341042 H 0.0 **** 0.06
37398 H 78.4754937908921 77.39851102250924 79.8549253970113 H 0.0 **** 0.06
37399 H 79.5886373763023 76.06813466798127 80.25623744322682 H 0.0 **** 0.06
37400 H 79.00141510701332 76.26464867465708 78.58657203839115 H 0.0 **** 0.06
37401 C 86.1141188478808 38.81413079236573 95.10336956456024 C 0.0 **** -0.24
37402 H 85.93340083312177 38.03017017099046 94.36646358587527 H 0.0 **** 0.06
37403 H 87.18436695959241 39.0068693675253 95.17444240265735 H 0.0 **** 0.06
37404 H 85.73607966939363 38.49285477897513 96.07399908475094 H 0.0 **** 0.06
37405 H 85.59924876547643 39.725115116942334 94.79675912211684 H 0.0 **** 0.06
37406 C 38.79326038003302 37.61822037893873 3.065455947170122 C 0.0 **** -0.24
37407 H 38.68199129563379 38.693088781334026 3.208727266278416 H 0.0 **** 0.06
37408 H 39.8499037595069 37.37305098192155 2.9556364524931666 H 0.0 **** 0.06
37409 H 38.25384266649593 37.314218146747805 2.167805242429921 H 0.0 **** 0.06
37410 H 38.38545562802676 37.09238409823024 3.928903142027991 H 0.0 **** 0.06
37411 C 87.42541767451291 83.47867554755746 85.55782303621989 C 0.0 **** -0.24
37412 H 87.05469397908206 83.72234704595564 84.56223241175137 H 0.0 **** 0.06
37413 H 87.92351726677543 84.35081078073102 85.98344444810057 H 0.0 **** 0.06
37414 H 88.13209705160398 82.65236165650242 85.49027979960456 H 0.0 **** 0.06
37415 H 86.58957851813562 83.19072997576757 86.19598668742584 H 0.0 **** 0.06
37416 C 50.49016169842372 81.56771319268319 77.53230662208097 C 0.0 **** -0.24
37417 H 49.54532783989907 81.89302931469086 77.96715823842652 H 0.0 **** 0.06
37418 H 50.55358304167822 81.91331679328613 76.49992611800928 H 0.0 **** 0.06
37419 H 50.54536044526208 80.47961540595975 77.55596731433678 H 0.0 **** 0.06
37420 H 51.317071238212435 81.98555213726598 78.10645623554262 H 0.0 **** 0.06
37421 C 41.80537082276436 59.28550902030639 39.43679088451145 C 0.0 **** -0.24
37422 H 42.067672172835216 59.4868473366073 38.39746874031698 H 0.0 **** 0.06
37423 H 42.11511358358558 58.27409669253012 39.699669323475376 H 0.0 **** 0.06
37424 H 40.72737092778024 59.38135248782777 39.564394877413804 H 0.0 **** 0.06
37425 H 42.31352077239009 60.00100520892428 40.08402302321713 H 0.0 **** 0.06
37426 C 43.44069709815068 63.26241226256565 40.22505449516899 C 0.0 **** -0.24
37427 H 44.066746206734756 63.29441530293542 39.33339095503652 H 0.0 **** 0.06
37428 H 42.58824886392375 63.929445548747196 40.093706865100955 H 0.0 **** 0.06
37429 H 44.023085879170154 63.58141854968801 41.08890795406808 H 0.0 **** 0.06
37430 H 43.08519754821228 62.24426686698399 40.38227585423334 H 0.0 **** 0.06
37431 C 61.232830359857076 27.931970661594733 4.976806289319001 C 0.0 **** -0.24
37432 H 62.10719332990061 28.17334756068874 5.581635332220685 H 0.0 **** 0.06
37433 H 61.14089617592913 28.65742375492559 4.167357357079823 H 0.0 **** 0.06
37434 H 60.339327143297226 27.96742157281318 5.600203270533143 H 0.0 **** 0.06
37435 H 61.346183032618 26.932475512573546 4.559053882370478 H 0.0 **** 0.06
37436 C 51.13620692512441 101.04354925685303 60.763737110462046 C 0.0 **** -0.24
37437 H 52.210953806326934 101.20619168553344 60.681031903378084 H 0.0 **** 0.06
37438 H 50.813932987681795 101.25632021252017 61.78343345244775 H 0.0 **** 0.06
37439 H 50.90609178616813 100.00610513296448 60.518777252674795 H 0.0 **** 0.06
37440 H 50.61400611127337 101.70478577133588 60.0722928744531 H 0.0 **** 0.06
37441 C 96.07649404592053 10.276804345124958 100.01172202989342 C 0.0 **** -0.24
37442 H 95.49061510664686 10.491455181878052 100.90513761506884 H 0.0 **** 0.06
37443 H 96.09300695621977 11.156965142385047 99.36772362994878 H 0.0 **** 0.06
37444 H 95.62598864071472 9.44153370358211 99.4749768157302 H 0.0 **** 0.06
37445 H 97.09559675709471 10.01670410057946 100.29873964149662 H 0.0 **** 0.06
37446 C 60.382786565073715 90.1896238264062 17.45520361449752 C 0.0 **** -0.24
37447 H 61.35513611413903 89.69792135960938 17.409272542957353 H 0.0 **** 0.06
37448 H 60.42695724853061 91.01643502371729 18.163302961059713 H 0.0 **** 0.06
37449 H 59.62825431989528 89.47212626522321 17.779749407139548 H 0.0 **** 0.06
37450 H 60.12172574289677 90.56926727166746 16.467712542666106 H 0.0 **** 0.06
37451 C 109.53776702957936 90.56861084176951 16.146420488693852 C 0.0 **** -0.24
37452 H 109.94912841931865 91.499656139065 15.757686694240203 H 0.0 **** 0.06
37453 H 109.98723297138078 90.3498092781833 17.115840359601666 H 0.0 **** 0.06
37454 H 109.75595861699672 89.75738615886479 15.452905227913242 H 0.0 **** 0.06
37455 H 108.4578418680813 90.66838744001699 16.26113274268358 H 0.0 **** 0.06
37456 C 40.188347447819694 27.251200481295996 31.557608046600592 C 0.0 **** -0.24
37457 H 40.75456593227793 26.62780637632713 32.24981031974636 H 0.0 **** 0.06
37458 H 39.13740062909153 26.963953364109045 31.586615238190177 H 0.0 **** 0.06
37459 H 40.57527227996114 27.114632694979946 30.54758824935257 H 0.0 **** 0.06
37460 H 40.28776599359321 28.29700485240565 31.847065613394705 H 0.0 **** 0.06
37461 C 102.07442159848031 107.27217148558043 22.10632901563814 C 0.0 **** -0.24
37462 H 102.5110190884186 106.64093751541834 21.33228840489471 H 0.0 **** 0.06
37463 H 101.86657123553215 108.25956199878138 21.69451870252593 H 0.0 **** 0.06
37464 H 102.77238502504588 107.36310481667759 22.93820322532033 H 0.0 **** 0.06
37465 H 101.14520491531576 106.82297754359487 22.458791480137155 H 0.0 **** 0.06
37466 C 35.13714351372865 73.4330136497799 24.65263125407597 C 0.0 **** -0.24
37467 H 35.797895155698164 73.05391774644234 25.43270122425963 H 0.0 **** 0.06
37468 H 35.22919324593253 74.5176239653851 24.59569388707189 H 0.0 **** 0.06
37469 H 34.10750595628255 73.16618847573424 24.887651028884534 H 0.0 **** 0.06
37470 H 35.41700474407961 72.99372453732214 23.695178740142666 H 0.0 **** 0.06
37471 C 72.49069751228365 30.667078356790682 65.89416594870474 C 0.0 **** -0.24
37472 H 72.83156571539632 29.876637791775096 65.22576328911657 H 0.0 **** 0.06
37473 H 71.40149327269035 30.676861729030776 65.91938314651776 H 0.0 **** 0.06
37474 H 72.85531188207881 31.629199844855123 65.53525074968161 H 0.0 **** 0.06
37475 H 72.876240648249 30.484426903010416 66.89739499133162 H 0.0 **** 0.06
37476 C 89.98375473644614 46.83974709288003 51.80276367936949 C 0.0 **** -0.24
37477 H 89.97579155180809 47.156088626464566 52.84551443562598 H 0.0 **** 0.06
37478 H 90.70926950832194 47.43621898488442 51.2474526949087 H 0.0 **** 0.06
37479 H 88.99193661040778 46.980729503773205 51.372698168739504 H 0.0 **** 0.06
37480 H 90.25816229074188 45.787318880573594 51.74433590535136 H 0.0 **** 0.06
37481 C 12.60570147762402 109.88365090668316 38.85173904879068 C 0.0 **** -0.24
37482 H 11.757700523346774 110.56191383105704 38.94481065766553 H 0.0 **** 0.06
37483 H 12.698421376200134 109.29164194912607 39.76249806980337 H 0.0 **** 0.06
37484 H 13.516549581586428 110.46159225277111 38.69796960838721 H 0.0 **** 0.06
37485 H 12.447056030354783 109.22011413366067 38.00137727089307 H 0.0 **** 0.06
37486 C 52.52089218309536 32.132466735224 13.217562872976714 C 0.0 **** -0.24
37487 H 52.713508689439685 31.446847161928275 12.392628201007653 H 0.0 **** 0.06
37488 H 52.451835318870586 33.15127117327404 12.834341911650853 H 0.0 **** 0.06
37489 H 53.33436683179684 32.069972928297986 13.939395951882346 H 0.0 **** 0.06
37490 H 51.58289315090437 31.861406775921154 13.702919353085605 H 0.0 **** 0.06
37491 C 55.68345220953728 95.33708230739137 78.0902508600688 C 0.0 **** -0.24
37492 H 55.78780078087121 96.0098048994258 78.94155647354799 H 0.0 **** 0.06
37493 H 55.56539421535959 95.92165139661645 77.17767710206556 H 0.0 **** 0.06
37494 H 54.8063115906898 94.70464200221272 78.23319926078932 H 0.0 **** 0.06
37495 H 56.57239342015623 94.71185954824696 78.01006016076283 H 0.0 **** 0.06
37496 C 75.14336796907733 93.66724744189473 42.516434795875966 C 0.0 **** -0.24
37497 H 75.29163561906914 92.58909876210227 42.45579916115301 H 0.0 **** 0.06
37498 H 74.08906417911713 93.87893505761375 42.69411264079713 H 0.0 **** 0.06
37499 H 75.45372956431649 94.12898711041373 41.57881827291908 H 0.0 **** 0.06
37500 H 75.73848507695709 94.0706458421228 43.33502434449272 H 0.0 **** 0.06
@<TRIPOS>BOND
1 1 2 28
2 1 3 28
3 1 4 28
4 1 5 28
5 6 7 28
6 6 8 28
7 6 9 28
8 6 10 28
9 11 12 28
10 11 13 28
11 11 14 28
12 11 15 28
13 16 17 28
14 16 18 28
15 16 19 28
16 16 20 28
17 21 22 28
18 21 23 28
19 21 24 28
20 21 25 28
21 26 27 28
22 26 28 28
23 26 29 28
24 26 30 28
25 31 32 28
26 31 33 28
27 31 34 28
28 31 35 28
29 36 37 28
30 36 38 28
31 36 39 28
32 36 40 28
33 41 42 28
34 41 43 28
35 41 44 28
36 41 45 28
37 46 47 28
38 46 48 28
39 46 49 28
40 46 50 28
41 51 52 28
42 51 53 28
43 51 54 28
44 51 55 28
45 56 57 28
46 56 58 28
47 56 59 28
48 56 60 28
49 61 62 28
50 61 63 28
51 61 64 28
52 61 65 28
53 66 67 28
54 66 68 28
55 66 69 28
56 66 70 28
57 71 72 28
58 71 73 28
59 71 74 28
60 71 75 28
61 76 77 28
62 76 78 28
63 76 79 28
64 76 80 28
65 81 82 28
66 81 83 28
67 81 84 28
68 81 85 28
69 86 87 28
70 86 88 28
71 86 89 28
72 86 90 28
73 91 92 28
74 91 93 28
75 91 94 28
76 91 95 28
77 96 97 28
78 96 98 28
79 96 99 28
80 96 100 28
81 101 102 28
82 101 103 28
83 101 104 28
84 101 105 28
85 106 107 28
86 106 108 28
87 106 109 28
88 106 110 28
89 111 112 28
90 111 113 28
91 111 114 28
92 111 115 28
93 116 117 28
94 116 118 28
95 116 119 28
96 116 120 28
97 121 122 28
98 121 123 28
99 121 124 28
100 121 125 28
101 126 127 28
102 126 128 28
103 126 129 28
104 126 130 28
105 131 132 28
106 131 133 28
107 131 134 28
108 131 135 28
109 136 137 28
110 136 138 28
111 136 139 28
112 136 140 28
113 141 142 28
114 141 143 28
115 141 144 28
116 141 145 28
117 146 147 28
118 146 148 28
119 146 149 28
120 146 150 28
121 151 152 28
122 151 153 28
123 151 154 28
124 151 155 28
125 156 157 28
126 156 158 28
127 156 159 28
128 156 160 28
129 161 162 28
130 161 163 28
131 161 164 28
132 161 165 28
133 166 167 28
134 166 168 28
135 166 169 28
136 166 170 28
137 171 172 28
138 171 173 28
139 171 174 28
140 171 175 28
141 176 177 28
142 176 178 28
143 176 179 28
144 176 180 28
145 181 182 28
146 181 183 28
147 181 184 28
148 181 185 28
149 186 187 28
150 186 188 28
151 186 189 28
152 186 190 28
153 191 192 28
154 191 193 28
155 191 194 28
156 191 195 28
157 196 197 28
158 196 198 28
159 196 199 28
160 196 200 28
161 201 202 28
162 201 203 28
163 201 204 28
164 201 205 28
165 206 207 28
166 206 208 28
167 206 209 28
168 206 210 28
169 211 212 28
170 211 213 28
171 211 214 28
172 211 215 28
173 216 217 28
174 216 218 28
175 216 219 28
176 216 220 28
177 221 222 28
178 221 223 28
179 221 224 28
180 221 225 28
181 226 227 28
182 226 228 28
183 226 229 28
184 226 230 28
185 231 232 28
186 231 233 28
187 231 234 28
188 231 235 28
189 236 237 28
190 236 238 28
191 236 239 28
192 236 240 28
193 241 242 28
194 241 243 28
195 241 244 28
196 241 245 28
197 246 247 28
198 246 248 28
199 246 249 28
200 246 250 28
201 251 252 28
202 251 253 28
203 251 254 28
204 251 255 28
205 256 257 28
206 256 258 28
207 256 259 28
208 256 260 28
209 261 262 28
210 261 263 28
211 261 264 28
212 261 265 28
213 266 267 28
214 266 268 28
215 266 269 28
216 266 270 28
217 271 272 28
218 271 273 28
219 271 274 28
220 271 275 28
221 276 277 28
222 276 278 28
223 276 279 28
224 276 280 28
225 281 282 28
226 281 283 28
227 281 284 28
228 281 285 28
229 286 287 28
230 286 288 28
231 286 289 28
232 286 290 28
233 291 292 28
234 291 293 28
235 291 294 28
236 291 295 28
237 296 297 28
238 296 298 28
239 296 299 28
240 296 300 28
241 301 302 28
242 301 303 28
243 301 304 28
244 301 305 28
245 306 307 28
246 306 308 28
247 306 309 28
248 306 310 28
249 311 312 28
250 311 313 28
251 311 314 28
252 311 315 28
253 316 317 28
254 316 318 28
255 316 319 28
256 316 320 28
257 321 322 28
258 321 323 28
259 321 324 28
260 321 325 28
261 326 327 28
262 326 328 28
263 326 329 28
264 326 330 28
265 331 332 28
266 331 333 28
267 331 334 28
268 331 335 28
269 336 337 28
270 336 338 28
271 336 339 28
272 336 340 28
273 341 342 28
274 341 343 28
275 341 344 28
276 341 345 28
277 346 347 28
278 346 348 28
279 346 349 28
280 346 350 28
281 351 352 28
282 351 353 28
283 351 354 28
284 351 355 28
285 356 357 28
286 356 358 28
287 356 359 28
288 356 360 28
289 361 362 28
290 361 363 28
291 361 364 28
292 361 365 28
293 366 367 28
294 366 368 28
295 366 369 28
296 366 370 28
297 371 372 28
298 371 373 28
299 371 374 28
300 371 375 28
301 376 377 28
302 376 378 28
303 376 379 28
304 376 380 28
305 381 382 28
306 381 383 28
307 381 384 28
308 381 385 28
309 386 387 28
310 386 388 28
311 386 389 28
312 386 390 28
313 391 392 28
314 391 393 28
315 391 394 28
316 391 395 28
317 396 397 28
318 396 398 28
319 396 399 28
320 396 400 28
321 401 402 28
322 401 403 28
323 401 404 28
324 401 405 28
325 406 407 28
326 406 408 28
327 406 409 28
328 406 410 28
329 411 412 28
330 411 413 28
331 411 414 28
332 411 415 28
333 416 417 28
334 416 418 28
335 416 419 28
336 416 420 28
337 421 422 28
338 421 423 28
339 421 424 28
340 421 425 28
341 426 427 28
342 426 428 28
343 426 429 28
344 426 430 28
345 431 432 28
346 431 433 28
347 431 434 28
348 431 435 28
349 436 437 28
350 436 438 28
351 436 439 28
352 436 440 28
353 441 442 28
354 441 443 28
355 441 444 28
356 441 445 28
357 446 447 28
358 446 448 28
359 446 449 28
360 446 450 28
361 451 452 28
362 451 453 28
363 451 454 28
364 451 455 28
365 456 457 28
366 456 458 28
367 456 459 28
368 456 460 28
369 461 462 28
370 461 463 28
371 461 464 28
372 461 465 28
373 466 467 28
374 466 468 28
375 466 469 28
376 466 470 28
377 471 472 28
378 471 473 28
379 471 474 28
380 471 475 28
381 476 477 28
382 476 478 28
383 476 479 28
384 476 480 28
385 481 482 28
386 481 483 28
387 481 484 28
388 481 485 28
389 486 487 28
390 486 488 28
391 486 489 28
392 486 490 28
393 491 492 28
394 491 493 28
395 491 494 28
396 491 495 28
397 496 497 28
398 496 498 28
399 496 499 28
400 496 500 28
401 501 502 28
402 501 503 28
403 501 504 28
404 501 505 28
405 506 507 28
406 506 508 28
407 506 509 28
408 506 510 28
409 511 512 28
410 511 513 28
411 511 514 28
412 511 515 28
413 516 517 28
414 516 518 28
415 516 519 28
416 516 520 28
417 521 522 28
418 521 523 28
419 521 524 28
420 521 525 28
421 526 527 28
422 526 528 28
423 526 529 28
424 526 530 28
425 531 532 28
426 531 533 28
427 531 534 28
428 531 535 28
429 536 537 28
430 536 538 28
431 536 539 28
432 536 540 28
433 541 542 28
434 541 543 28
435 541 544 28
436 541 545 28
437 546 547 28
438 546 548 28
439 546 549 28
440 546 550 28
441 551 552 28
442 551 553 28
443 551 554 28
444 551 555 28
445 556 557 28
446 556 558 28
447 556 559 28
448 556 560 28
449 561 562 28
450 561 563 28
451 561 564 28
452 561 565 28
453 566 567 28
454 566 568 28
455 566 569 28
456 566 570 28
457 571 572 28
458 571 573 28
459 571 574 28
460 571 575 28
461 576 577 28
462 576 578 28
463 576 579 28
464 576 580 28
465 581 582 28
466 581 583 28
467 581 584 28
468 581 585 28
469 586 587 28
470 586 588 28
471 586 589 28
472 586 590 28
473 591 592 28
474 591 593 28
475 591 594 28
476 591 595 28
477 596 597 28
478 596 598 28
479 596 599 28
480 596 600 28
481 601 602 28
482 601 603 28
483 601 604 28
484 601 605 28
485 606 607 28
486 606 608 28
487 606 609 28
488 606 610 28
489 611 612 28
490 611 613 28
491 611 614 28
492 611 615 28
493 616 617 28
494 616 618 28
495 616 619 28
496 616 620 28
497 621 622 28
498 621 623 28
499 621 624 28
500 621 625 28
501 626 627 28
502 626 628 28
503 626 629 28
504 626 630 28
505 631 632 28
506 631 633 28
507 631 634 28
508 631 635 28
509 636 637 28
510 636 638 28
511 636 639 28
512 636 640 28
513 641 642 28
514 641 643 28
515 641 644 28
516 641 645 28
517 646 647 28
518 646 648 28
519 646 649 28
520 646 650 28
521 651 652 28
522 651 653 28
523 651 654 28
524 651 655 28
525 656 657 28
526 656 658 28
527 656 659 28
528 656 660 28
529 661 662 28
530 661 663 28
531 661 664 28
532 661 665 28
533 666 667 28
534 666 668 28
535 666 669 28
536 666 670 28
537 671 672 28
538 671 673 28
539 671 674 28
540 671 675 28
541 676 677 28
542 676 678 28
543 676 679 28
544 676 680 28
545 681 682 28
546 681 683 28
547 681 684 28
548 681 685 28
549 686 687 28
550 686 688 28
551 686 689 28
552 686 690 28
553 691 692 28
554 691 693 28
555 691 694 28
556 691 695 28
557 696 697 28
558 696 698 28
559 696 699 28
560 696 700 28
561 701 702 28
562 701 703 28
563 701 704 28
564 701 705 28
565 706 707 28
566 706 708 28
567 706 709 28
568 706 710 28
569 711 712 28
570 711 713 28
571 711 714 28
572 711 715 28
573 716 717 28
574 716 718 28
575 716 719 28
576 716 720 28
577 721 722 28
578 721 723 28
579 721 724 28
580 721 725 28
581 726 727 28
582 726 728 28
583 726 729 28
584 726 730 28
585 731 732 28
586 731 733 28
587 731 734 28
588 731 735 28
589 736 737 28
590 736 738 28
591 736 739 28
592 736 740 28
593 741 742 28
594 741 743 28
595 741 744 28
596 741 745 28
597 746 747 28
598 746 748 28
599 746 749 28
600 746 750 28
601 751 752 28
602 751 753 28
603 751 754 28
604 751 755 28
605 756 757 28
606 756 758 28
607 756 759 28
608 756 760 28
609 761 762 28
610 761 763 28
611 761 764 28
612 761 765 28
613 766 767 28
614 766 768 28
615 766 769 28
616 766 770 28
617 771 772 28
618 771 773 28
619 771 774 28
620 771 775 28
621 776 777 28
622 776 778 28
623 776 779 28
624 776 780 28
625 781 782 28
626 781 783 28
627 781 784 28
628 781 785 28
629 786 787 28
630 786 788 28
631 786 789 28
632 786 790 28
633 791 792 28
634 791 793 28
635 791 794 28
636 791 795 28
637 796 797 28
638 796 798 28
639 796 799 28
640 796 800 28
641 801 802 28
642 801 803 28
643 801 804 28
644 801 805 28
645 806 807 28
646 806 808 28
647 806 809 28
648 806 810 28
649 811 812 28
650 811 813 28
651 811 814 28
652 811 815 28
653 816 817 28
654 816 818 28
655 816 819 28
656 816 820 28
657 821 822 28
658 821 823 28
659 821 824 28
660 821 825 28
661 826 827 28
662 826 828 28
663 826 829 28
664 826 830 28
665 831 832 28
666 831 833 28
667 831 834 28
668 831 835 28
669 836 837 28
670 836 838 28
671 836 839 28
672 836 840 28
673 841 842 28
674 841 843 28
675 841 844 28
676 841 845 28
677 846 847 28
678 846 848 28
679 846 849 28
680 846 850 28
681 851 852 28
682 851 853 28
683 851 854 28
684 851 855 28
685 856 857 28
686 856 858 28
687 856 859 28
688 856 860 28
689 861 862 28
690 861 863 28
691 861 864 28
692 861 865 28
693 866 867 28
694 866 868 28
695 866 869 28
696 866 870 28
697 871 872 28
698 871 873 28
699 871 874 28
700 871 875 28
701 876 877 28
702 876 878 28
703 876 879 28
704 876 880 28
705 881 882 28
706 881 883 28
707 881 884 28
708 881 885 28
709 886 887 28
710 886 888 28
711 886 889 28
712 886 890 28
713 891 892 28
714 891 893 28
715 891 894 28
716 891 895 28
717 896 897 28
718 896 898 28
719 896 899 28
720 896 900 28
721 901 902 28
722 901 903 28
723 901 904 28
724 901 905 28
725 906 907 28
726 906 908 28
727 906 909 28
728 906 910 28
729 911 912 28
730 911 913 28
731 911 914 28
732 911 915 28
733 916 917 28
734 916 918 28
735 916 919 28
736 916 920 28
737 921 922 28
738 921 923 28
739 921 924 28
740 921 925 28
741 926 927 28
742 926 928 28
743 926 929 28
744 926 930 28
745 931 932 28
746 931 933 28
747 931 934 28
748 931 935 28
749 936 937 28
750 936 938 28
751 936 939 28
752 936 940 28
753 941 942 28
754 941 943 28
755 941 944 28
756 941 945 28
757 946 947 28
758 946 948 28
759 946 949 28
760 946 950 28
761 951 952 28
762 951 953 28
763 951 954 28
764 951 955 28
765 956 957 28
766 956 958 28
767 956 959 28
768 956 960 28
769 961 962 28
770 961 963 28
771 961 964 28
772 961 965 28
773 966 967 28
774 966 968 28
775 966 969 28
776 966 970 28
777 971 972 28
778 971 973 28
779 971 974 28
780 971 975 28
781 976 977 28
782 976 978 28
783 976 979 28
784 976 980 28
785 981 982 28
786 981 983 28
787 981 984 28
788 981 985 28
789 986 987 28
790 986 988 28
791 986 989 28
792 986 990 28
793 991 992 28
794 991 993 28
795 991 994 28
796 991 995 28
797 996 997 28
798 996 998 28
799 996 999 28
800 996 1000 28
801 1001 1002 28
802 1001 1003 28
803 1001 1004 28
804 1001 1005 28
805 1006 1007 28
806 1006 1008 28
807 1006 1009 28
808 1006 1010 28
809 1011 1012 28
810 1011 1013 28
811 1011 1014 28
812 1011 1015 28
813 1016 1017 28
814 1016 1018 28
815 1016 1019 28
816 1016 1020 28
817 1021 1022 28
818 1021 1023 28
819 1021 1024 28
820 1021 1025 28
821 1026 1027 28
822 1026 1028 28
823 1026 1029 28
824 1026 1030 28
825 1031 1032 28
826 1031 1033 28
827 1031 1034 28
828 1031 1035 28
829 1036 1037 28
830 1036 1038 28
831 1036 1039 28
832 1036 1040 28
833 1041 1042 28
834 1041 1043 28
835 1041 1044 28
836 1041 1045 28
837 1046 1047 28
838 1046 1048 28
839 1046 1049 28
840 1046 1050 28
841 1051 1052 28
842 1051 1053 28
843 1051 1054 28
844 1051 1055 28
845 1056 1057 28
846 1056 1058 28
847 1056 1059 28
848 1056 1060 28
849 1061 1062 28
850 1061 1063 28
851 1061 1064 28
852 1061 1065 28
853 1066 1067 28
854 1066 1068 28
855 1066 1069 28
856 1066 1070 28
857 1071 1072 28
858 1071 1073 28
859 1071 1074 28
860 1071 1075 28
861 1076 1077 28
862 1076 1078 28
863 1076 1079 28
864 1076 1080 28
865 1081 1082 28
866 1081 1083 28
867 1081 1084 28
868 1081 1085 28
869 1086 1087 28
870 1086 1088 28
871 1086 1089 28
872 1086 1090 28
873 1091 1092 28
874 1091 1093 28
875 1091 1094 28
876 1091 1095 28
877 1096 1097 28
878 1096 1098 28
879 1096 1099 28
880 1096 1100 28
881 1101 1102 28
882 1101 1103 28
883 1101 1104 28
884 1101 1105 28
885 1106 1107 28
886 1106 1108 28
887 1106 1109 28
888 1106 1110 28
889 1111 1112 28
890 1111 1113 28
891 1111 1114 28
892 1111 1115 28
893 1116 1117 28
894 1116 1118 28
895 1116 1119 28
896 1116 1120 28
897 1121 1122 28
898 1121 1123 28
899 1121 1124 28
900 1121 1125 28
901 1126 1127 28
902 1126 1128 28
903 1126 1129 28
904 1126 1130 28
905 1131 1132 28
906 1131 1133 28
907 1131 1134 28
908 1131 1135 28
909 1136 1137 28
910 1136 1138 28
911 1136 1139 28
912 1136 1140 28
913 1141 1142 28
914 1141 1143 28
915 1141 1144 28
916 1141 1145 28
917 1146 1147 28
918 1146 1148 28
919 1146 1149 28
920 1146 1150 28
921 1151 1152 28
922 1151 1153 28
923 1151 1154 28
924 1151 1155 28
925 1156 1157 28
926 1156 1158 28
927 1156 1159 28
928 1156 1160 28
929 1161 1162 28
930 1161 1163 28
931 1161 1164 28
932 1161 1165 28
933 1166 1167 28
934 1166 1168 28
935 1166 1169 28
936 1166 1170 28
937 1171 1172 28
938 1171 1173 28
939 1171 1174 28
940 1171 1175 28
941 1176 1177 28
942 1176 1178 28
943 1176 1179 28
944 1176 1180 28
945 1181 1182 28
946 1181 1183 28
947 1181 1184 28
948 1181 1185 28
949 1186 1187 28
950 1186 1188 28
951 1186 1189 28
952 1186 1190 28
953 1191 1192 28
954 1191 1193 28
955 1191 1194 28
956 1191 1195 28
957 1196 1197 28
958 1196 1198 28
959 1196 1199 28
960 1196 1200 28
961 1201 1202 28
962 1201 1203 28
963 1201 1204 28
964 1201 1205 28
965 1206 1207 28
966 1206 1208 28
967 1206 1209 28
968 1206 1210 28
969 1211 1212 28
970 1211 1213 28
971 1211 1214 28
972 1211 1215 28
973 1216 1217 28
974 1216 1218 28
975 1216 1219 28
976 1216 1220 28
977 1221 1222 28
978 1221 1223 28
979 1221 1224 28
980 1221 1225 28
981 1226 1227 28
982 1226 1228 28
983 1226 1229 28
984 1226 1230 28
985 1231 1232 28
986 1231 1233 28
987 1231 1234 28
988 1231 1235 28
989 1236 1237 28
990 1236 1238 28
991 1236 1239 28
992 1236 1240 28
993 1241 1242 28
994 1241 1243 28
995 1241 1244 28
996 1241 1245 28
997 1246 1247 28
998 1246 1248 28
999 1246 1249 28
1000 1246 1250 28
1001 1251 1252 28
1002 1251 1253 28
1003 1251 1254 28
1004 1251 1255 28
1005 1256 1257 28
1006 1256 1258 28
1007 1256 1259 28
1008 1256 1260 28
1009 1261 1262 28
1010 1261 1263 28
1011 1261 1264 28
1012 1261 1265 28
1013 1266 1267 28
1014 1266 1268 28
1015 1266 1269 28
1016 1266 1270 28
1017 1271 1272 28
1018 1271 1273 28
1019 1271 1274 28
1020 1271 1275 28
1021 1276 1277 28
1022 1276 1278 28
1023 1276 1279 28
1024 1276 1280 28
1025 1281 1282 28
1026 1281 1283 28
1027 1281 1284 28
1028 1281 1285 28
1029 1286 1287 28
1030 1286 1288 28
1031 1286 1289 28
1032 1286 1290 28
1033 1291 1292 28
1034 1291 1293 28
1035 1291 1294 28
1036 1291 1295 28
1037 1296 1297 28
1038 1296 1298 28
1039 1296 1299 28
1040 1296 1300 28
1041 1301 1302 28
1042 1301 1303 28
1043 1301 1304 28
1044 1301 1305 28
1045 1306 1307 28
1046 1306 1308 28
1047 1306 1309 28
1048 1306 1310 28
1049 1311 1312 28
1050 1311 1313 28
1051 1311 1314 28
1052 1311 1315 28
1053 1316 1317 28
1054 1316 1318 28
1055 1316 1319 28
1056 1316 1320 28
1057 1321 1322 28
1058 1321 1323 28
1059 1321 1324 28
1060 1321 1325 28
1061 1326 1327 28
1062 1326 1328 28
1063 1326 1329 28
1064 1326 1330 28
1065 1331 1332 28
1066 1331 1333 28
1067 1331 1334 28
1068 1331 1335 28
1069 1336 1337 28
1070 1336 1338 28
1071 1336 1339 28
1072 1336 1340 28
1073 1341 1342 28
1074 1341 1343 28
1075 1341 1344 28
1076 1341 1345 28
1077 1346 1347 28
1078 1346 1348 28
1079 1346 1349 28
1080 1346 1350 28
1081 1351 1352 28
1082 1351 1353 28
1083 1351 1354 28
1084 1351 1355 28
1085 1356 1357 28
1086 1356 1358 28
1087 1356 1359 28
1088 1356 1360 28
1089 1361 1362 28
1090 1361 1363 28
1091 1361 1364 28
1092 1361 1365 28
1093 1366 1367 28
1094 1366 1368 28
1095 1366 1369 28
1096 1366 1370 28
1097 1371 1372 28
1098 1371 1373 28
1099 1371 1374 28
1100 1371 1375 28
1101 1376 1377 28
1102 1376 1378 28
1103 1376 1379 28
1104 1376 1380 28
1105 1381 1382 28
1106 1381 1383 28
1107 1381 1384 28
1108 1381 1385 28
1109 1386 1387 28
1110 1386 1388 28
1111 1386 1389 28
1112 1386 1390 28
1113 1391 1392 28
1114 1391 1393 28
1115 1391 1394 28
1116 1391 1395 28
1117 1396 1397 28
1118 1396 1398 28
1119 1396 1399 28
1120 1396 1400 28
1121 1401 1402 28
1122 1401 1403 28
1123 1401 1404 28
1124 1401 1405 28
1125 1406 1407 28
1126 1406 1408 28
1127 1406 1409 28
1128 1406 1410 28
1129 1411 1412 28
1130 1411 1413 28
1131 1411 1414 28
1132 1411 1415 28
1133 1416 1417 28
1134 1416 1418 28
1135 1416 1419 28
1136 1416 1420 28
1137 1421 1422 28
1138 1421 1423 28
1139 1421 1424 28
1140 1421 1425 28
1141 1426 1427 28
1142 1426 1428 28
1143 1426 1429 28
1144 1426 1430 28
1145 1431 1432 28
1146 1431 1433 28
1147 1431 1434 28
1148 1431 1435 28
1149 1436 1437 28
1150 1436 1438 28
1151 1436 1439 28
1152 1436 1440 28
1153 1441 1442 28
1154 1441 1443 28
1155 1441 1444 28
1156 1441 1445 28
1157 1446 1447 28
1158 1446 1448 28
1159 1446 1449 28
1160 1446 1450 28
1161 1451 1452 28
1162 1451 1453 28
1163 1451 1454 28
1164 1451 1455 28
1165 1456 1457 28
1166 1456 1458 28
1167 1456 1459 28
1168 1456 1460 28
1169 1461 1462 28
1170 1461 1463 28
1171 1461 1464 28
1172 1461 1465 28
1173 1466 1467 28
1174 1466 1468 28
1175 1466 1469 28
1176 1466 1470 28
1177 1471 1472 28
1178 1471 1473 28
1179 1471 1474 28
1180 1471 1475 28
1181 1476 1477 28
1182 1476 1478 28
1183 1476 1479 28
1184 1476 1480 28
1185 1481 1482 28
1186 1481 1483 28
1187 1481 1484 28
1188 1481 1485 28
1189 1486 1487 28
1190 1486 1488 28
1191 1486 1489 28
1192 1486 1490 28
1193 1491 1492 28
1194 1491 1493 28
1195 1491 1494 28
1196 1491 1495 28
1197 1496 1497 28
1198 1496 1498 28
1199 1496 1499 28
1200 1496 1500 28
1201 1501 1502 28
1202 1501 1503 28
1203 1501 1504 28
1204 1501 1505 28
1205 1506 1507 28
1206 1506 1508 28
1207 1506 1509 28
1208 1506 1510 28
1209 1511 1512 28
1210 1511 1513 28
1211 1511 1514 28
1212 1511 1515 28
1213 1516 1517 28
1214 1516 1518 28
1215 1516 1519 28
1216 1516 1520 28
1217 1521 1522 28
1218 1521 1523 28
1219 1521 1524 28
1220 1521 1525 28
1221 1526 1527 28
1222 1526 1528 28
1223 1526 1529 28
1224 1526 1530 28
1225 1531 1532 28
1226 1531 1533 28
1227 1531 1534 28
1228 1531 1535 28
1229 1536 1537 28
1230 1536 1538 28
1231 1536 1539 28
1232 1536 1540 28
1233 1541 1542 28
1234 1541 1543 28
1235 1541 1544 28
1236 1541 1545 28
1237 1546 1547 28
1238 1546 1548 28
1239 1546 1549 28
1240 1546 1550 28
1241 1551 1552 28
1242 1551 1553 28
1243 1551 1554 28
1244 1551 1555 28
1245 1556 1557 28
1246 1556 1558 28
1247 1556 1559 28
1248 1556 1560 28
1249 1561 1562 28
1250 1561 1563 28
1251 1561 1564 28
1252 1561 1565 28
1253 1566 1567 28
1254 1566 1568 28
1255 1566 1569 28
1256 1566 1570 28
1257 1571 1572 28
1258 1571 1573 28
1259 1571 1574 28
1260 1571 1575 28
1261 1576 1577 28
1262 1576 1578 28
1263 1576 1579 28
1264 1576 1580 28
1265 1581 1582 28
1266 1581 1583 28
1267 1581 1584 28
1268 1581 1585 28
1269 1586 1587 28
1270 1586 1588 28
1271 1586 1589 28
1272 1586 1590 28
1273 1591 1592 28
1274 1591 1593 28
1275 1591 1594 28
1276 1591 1595 28
1277 1596 1597 28
1278 1596 1598 28
1279 1596 1599 28
1280 1596 1600 28
1281 1601 1602 28
1282 1601 1603 28
1283 1601 1604 28
1284 1601 1605 28
1285 1606 1607 28
1286 1606 1608 28
1287 1606 1609 28
1288 1606 1610 28
1289 1611 1612 28
1290 1611 1613 28
1291 1611 1614 28
1292 1611 1615 28
1293 1616 1617 28
1294 1616 1618 28
1295 1616 1619 28
1296 1616 1620 28
1297 1621 1622 28
1298 1621 1623 28
1299 1621 1624 28
1300 1621 1625 28
1301 1626 1627 28
1302 1626 1628 28
1303 1626 1629 28
1304 1626 1630 28
1305 1631 1632 28
1306 1631 1633 28
1307 1631 1634 28
1308 1631 1635 28
1309 1636 1637 28
1310 1636 1638 28
1311 1636 1639 28
1312 1636 1640 28
1313 1641 1642 28
1314 1641 1643 28
1315 1641 1644 28
1316 1641 1645 28
1317 1646 1647 28
1318 1646 1648 28
1319 1646 1649 28
1320 1646 1650 28
1321 1651 1652 28
1322 1651 1653 28
1323 1651 1654 28
1324 1651 1655 28
1325 1656 1657 28
1326 1656 1658 28
1327 1656 1659 28
1328 1656 1660 28
1329 1661 1662 28
1330 1661 1663 28
1331 1661 1664 28
1332 1661 1665 28
1333 1666 1667 28
1334 1666 1668 28
1335 1666 1669 28
1336 1666 1670 28
1337 1671 1672 28
1338 1671 1673 28
1339 1671 1674 28
1340 1671 1675 28
1341 1676 1677 28
1342 1676 1678 28
1343 1676 1679 28
1344 1676 1680 28
1345 1681 1682 28
1346 1681 1683 28
1347 1681 1684 28
1348 1681 1685 28
1349 1686 1687 28
1350 1686 1688 28
1351 1686 1689 28
1352 1686 1690 28
1353 1691 1692 28
1354 1691 1693 28
1355 1691 1694 28
1356 1691 1695 28
1357 1696 1697 28
1358 1696 1698 28
1359 1696 1699 28
1360 1696 1700 28
1361 1701 1702 28
1362 1701 1703 28
1363 1701 1704 28
1364 1701 1705 28
1365 1706 1707 28
1366 1706 1708 28
1367 1706 1709 28
1368 1706 1710 28
1369 1711 1712 28
1370 1711 1713 28
1371 1711 1714 28
1372 1711 1715 28
1373 1716 1717 28
1374 1716 1718 28
1375 1716 1719 28
1376 1716 1720 28
1377 1721 1722 28
1378 1721 1723 28
1379 1721 1724 28
1380 1721 1725 28
1381 1726 1727 28
1382 1726 1728 28
1383 1726 1729 28
1384 1726 1730 28
1385 1731 1732 28
1386 1731 1733 28
1387 1731 1734 28
1388 1731 1735 28
1389 1736 1737 28
1390 1736 1738 28
1391 1736 1739 28
1392 1736 1740 28
1393 1741 1742 28
1394 1741 1743 28
1395 1741 1744 28
1396 1741 1745 28
1397 1746 1747 28
1398 1746 1748 28
1399 1746 1749 28
1400 1746 1750 28
1401 1751 1752 28
1402 1751 1753 28
1403 1751 1754 28
1404 1751 1755 28
1405 1756 1757 28
1406 1756 1758 28
1407 1756 1759 28
1408 1756 1760 28
1409 1761 1762 28
1410 1761 1763 28
1411 1761 1764 28
1412 1761 1765 28
1413 1766 1767 28
1414 1766 1768 28
1415 1766 1769 28
1416 1766 1770 28
1417 1771 1772 28
1418 1771 1773 28
1419 1771 1774 28
1420 1771 1775 28
1421 1776 1777 28
1422 1776 1778 28
1423 1776 1779 28
1424 1776 1780 28
1425 1781 1782 28
1426 1781 1783 28
1427 1781 1784 28
1428 1781 1785 28
1429 1786 1787 28
1430 1786 1788 28
1431 1786 1789 28
1432 1786 1790 28
1433 1791 1792 28
1434 1791 1793 28
1435 1791 1794 28
1436 1791 1795 28
1437 1796 1797 28
1438 1796 1798 28
1439 1796 1799 28
1440 1796 1800 28
1441 1801 1802 28
1442 1801 1803 28
1443 1801 1804 28
1444 1801 1805 28
1445 1806 1807 28
1446 1806 1808 28
1447 1806 1809 28
1448 1806 1810 28
1449 1811 1812 28
1450 1811 1813 28
1451 1811 1814 28
1452 1811 1815 28
1453 1816 1817 28
1454 1816 1818 28
1455 1816 1819 28
1456 1816 1820 28
1457 1821 1822 28
1458 1821 1823 28
1459 1821 1824 28
1460 1821 1825 28
1461 1826 1827 28
1462 1826 1828 28
1463 1826 1829 28
1464 1826 1830 28
1465 1831 1832 28
1466 1831 1833 28
1467 1831 1834 28
1468 1831 1835 28
1469 1836 1837 28
1470 1836 1838 28
1471 1836 1839 28
1472 1836 1840 28
1473 1841 1842 28
1474 1841 1843 28
1475 1841 1844 28
1476 1841 1845 28
1477 1846 1847 28
1478 1846 1848 28
1479 1846 1849 28
1480 1846 1850 28
1481 1851 1852 28
1482 1851 1853 28
1483 1851 1854 28
1484 1851 1855 28
1485 1856 1857 28
1486 1856 1858 28
1487 1856 1859 28
1488 1856 1860 28
1489 1861 1862 28
1490 1861 1863 28
1491 1861 1864 28
1492 1861 1865 28
1493 1866 1867 28
1494 1866 1868 28
1495 1866 1869 28
1496 1866 1870 28
1497 1871 1872 28
1498 1871 1873 28
1499 1871 1874 28
1500 1871 1875 28
1501 1876 1877 28
1502 1876 1878 28
1503 1876 1879 28
1504 1876 1880 28
1505 1881 1882 28
1506 1881 1883 28
1507 1881 1884 28
1508 1881 1885 28
1509 1886 1887 28
1510 1886 1888 28
1511 1886 1889 28
1512 1886 1890 28
1513 1891 1892 28
1514 1891 1893 28
1515 1891 1894 28
1516 1891 1895 28
1517 1896 1897 28
1518 1896 1898 28
1519 1896 1899 28
1520 1896 1900 28
1521 1901 1902 28
1522 1901 1903 28
1523 1901 1904 28
1524 1901 1905 28
1525 1906 1907 28
1526 1906 1908 28
1527 1906 1909 28
1528 1906 1910 28
1529 1911 1912 28
1530 1911 1913 28
1531 1911 1914 28
1532 1911 1915 28
1533 1916 1917 28
1534 1916 1918 28
1535 1916 1919 28
1536 1916 1920 28
1537 1921 1922 28
1538 1921 1923 28
1539 1921 1924 28
1540 1921 1925 28
1541 1926 1927 28
1542 1926 1928 28
1543 1926 1929 28
1544 1926 1930 28
1545 1931 1932 28
1546 1931 1933 28
1547 1931 1934 28
1548 1931 1935 28
1549 1936 1937 28
1550 1936 1938 28
1551 1936 1939 28
1552 1936 1940 28
1553 1941 1942 28
1554 1941 1943 28
1555 1941 1944 28
1556 1941 1945 28
1557 1946 1947 28
1558 1946 1948 28
1559 1946 1949 28
1560 1946 1950 28
1561 1951 1952 28
1562 1951 1953 28
1563 1951 1954 28
1564 1951 1955 28
1565 1956 1957 28
1566 1956 1958 28
1567 1956 1959 28
1568 1956 1960 28
1569 1961 1962 28
1570 1961 1963 28
1571 1961 1964 28
1572 1961 1965 28
1573 1966 1967 28
1574 1966 1968 28
1575 1966 1969 28
1576 1966 1970 28
1577 1971 1972 28
1578 1971 1973 28
1579 1971 1974 28
1580 1971 1975 28
1581 1976 1977 28
1582 1976 1978 28
1583 1976 1979 28
1584 1976 1980 28
1585 1981 1982 28
1586 1981 1983 28
1587 1981 1984 28
1588 1981 1985 28
1589 1986 1987 28
1590 1986 1988 28
1591 1986 1989 28
1592 1986 1990 28
1593 1991 1992 28
1594 1991 1993 28
1595 1991 1994 28
1596 1991 1995 28
1597 1996 1997 28
1598 1996 1998 28
1599 1996 1999 28
1600 1996 2000 28
1601 2001 2002 28
1602 2001 2003 28
1603 2001 2004 28
1604 2001 2005 28
1605 2006 2007 28
1606 2006 2008 28
1607 2006 2009 28
1608 2006 2010 28
1609 2011 2012 28
1610 2011 2013 28
1611 2011 2014 28
1612 2011 2015 28
1613 2016 2017 28
1614 2016 2018 28
1615 2016 2019 28
1616 2016 2020 28
1617 2021 2022 28
1618 2021 2023 28
1619 2021 2024 28
1620 2021 2025 28
1621 2026 2027 28
1622 2026 2028 28
1623 2026 2029 28
1624 2026 2030 28
1625 2031 2032 28
1626 2031 2033 28
1627 2031 2034 28
1628 2031 2035 28
1629 2036 2037 28
1630 2036 2038 28
1631 2036 2039 28
1632 2036 2040 28
1633 2041 2042 28
1634 2041 2043 28
1635 2041 2044 28
1636 2041 2045 28
1637 2046 2047 28
1638 2046 2048 28
1639 2046 2049 28
1640 2046 2050 28
1641 2051 2052 28
1642 2051 2053 28
1643 2051 2054 28
1644 2051 2055 28
1645 2056 2057 28
1646 2056 2058 28
1647 2056 2059 28
1648 2056 2060 28
1649 2061 2062 28
1650 2061 2063 28
1651 2061 2064 28
1652 2061 2065 28
1653 2066 2067 28
1654 2066 2068 28
1655 2066 2069 28
1656 2066 2070 28
1657 2071 2072 28
1658 2071 2073 28
1659 2071 2074 28
1660 2071 2075 28
1661 2076 2077 28
1662 2076 2078 28
1663 2076 2079 28
1664 2076 2080 28
1665 2081 2082 28
1666 2081 2083 28
1667 2081 2084 28
1668 2081 2085 28
1669 2086 2087 28
1670 2086 2088 28
1671 2086 2089 28
1672 2086 2090 28
1673 2091 2092 28
1674 2091 2093 28
1675 2091 2094 28
1676 2091 2095 28
1677 2096 2097 28
1678 2096 2098 28
1679 2096 2099 28
1680 2096 2100 28
1681 2101 2102 28
1682 2101 2103 28
1683 2101 2104 28
1684 2101 2105 28
1685 2106 2107 28
1686 2106 2108 28
1687 2106 2109 28
1688 2106 2110 28
1689 2111 2112 28
1690 2111 2113 28
1691 2111 2114 28
1692 2111 2115 28
1693 2116 2117 28
1694 2116 2118 28
1695 2116 2119 28
1696 2116 2120 28
1697 2121 2122 28
1698 2121 2123 28
1699 2121 2124 28
1700 2121 2125 28
1701 2126 2127 28
1702 2126 2128 28
1703 2126 2129 28
1704 2126 2130 28
1705 2131 2132 28
1706 2131 2133 28
1707 2131 2134 28
1708 2131 2135 28
1709 2136 2137 28
1710 2136 2138 28
1711 2136 2139 28
1712 2136 2140 28
1713 2141 2142 28
1714 2141 2143 28
1715 2141 2144 28
1716 2141 2145 28
1717 2146 2147 28
1718 2146 2148 28
1719 2146 2149 28
1720 2146 2150 28
1721 2151 2152 28
1722 2151 2153 28
1723 2151 2154 28
1724 2151 2155 28
1725 2156 2157 28
1726 2156 2158 28
1727 2156 2159 28
1728 2156 2160 28
1729 2161 2162 28
1730 2161 2163 28
1731 2161 2164 28
1732 2161 2165 28
1733 2166 2167 28
1734 2166 2168 28
1735 2166 2169 28
1736 2166 2170 28
1737 2171 2172 28
1738 2171 2173 28
1739 2171 2174 28
1740 2171 2175 28
1741 2176 2177 28
1742 2176 2178 28
1743 2176 2179 28
1744 2176 2180 28
1745 2181 2182 28
1746 2181 2183 28
1747 2181 2184 28
1748 2181 2185 28
1749 2186 2187 28
1750 2186 2188 28
1751 2186 2189 28
1752 2186 2190 28
1753 2191 2192 28
1754 2191 2193 28
1755 2191 2194 28
1756 2191 2195 28
1757 2196 2197 28
1758 2196 2198 28
1759 2196 2199 28
1760 2196 2200 28
1761 2201 2202 28
1762 2201 2203 28
1763 2201 2204 28
1764 2201 2205 28
1765 2206 2207 28
1766 2206 2208 28
1767 2206 2209 28
1768 2206 2210 28
1769 2211 2212 28
1770 2211 2213 28
1771 2211 2214 28
1772 2211 2215 28
1773 2216 2217 28
1774 2216 2218 28
1775 2216 2219 28
1776 2216 2220 28
1777 2221 2222 28
1778 2221 2223 28
1779 2221 2224 28
1780 2221 2225 28
1781 2226 2227 28
1782 2226 2228 28
1783 2226 2229 28
1784 2226 2230 28
1785 2231 2232 28
1786 2231 2233 28
1787 2231 2234 28
1788 2231 2235 28
1789 2236 2237 28
1790 2236 2238 28
1791 2236 2239 28
1792 2236 2240 28
1793 2241 2242 28
1794 2241 2243 28
1795 2241 2244 28
1796 2241 2245 28
1797 2246 2247 28
1798 2246 2248 28
1799 2246 2249 28
1800 2246 2250 28
1801 2251 2252 28
1802 2251 2253 28
1803 2251 2254 28
1804 2251 2255 28
1805 2256 2257 28
1806 2256 2258 28
1807 2256 2259 28
1808 2256 2260 28
1809 2261 2262 28
1810 2261 2263 28
1811 2261 2264 28
1812 2261 2265 28
1813 2266 2267 28
1814 2266 2268 28
1815 2266 2269 28
1816 2266 2270 28
1817 2271 2272 28
1818 2271 2273 28
1819 2271 2274 28
1820 2271 2275 28
1821 2276 2277 28
1822 2276 2278 28
1823 2276 2279 28
1824 2276 2280 28
1825 2281 2282 28
1826 2281 2283 28
1827 2281 2284 28
1828 2281 2285 28
1829 2286 2287 28
1830 2286 2288 28
1831 2286 2289 28
1832 2286 2290 28
1833 2291 2292 28
1834 2291 2293 28
1835 2291 2294 28
1836 2291 2295 28
1837 2296 2297 28
1838 2296 2298 28
1839 2296 2299 28
1840 2296 2300 28
1841 2301 2302 28
1842 2301 2303 28
1843 2301 2304 28
1844 2301 2305 28
1845 2306 2307 28
1846 2306 2308 28
1847 2306 2309 28
1848 2306 2310 28
1849 2311 2312 28
1850 2311 2313 28
1851 2311 2314 28
1852 2311 2315 28
1853 2316 2317 28
1854 2316 2318 28
1855 2316 2319 28
1856 2316 2320 28
1857 2321 2322 28
1858 2321 2323 28
1859 2321 2324 28
1860 2321 2325 28
1861 2326 2327 28
1862 2326 2328 28
1863 2326 2329 28
1864 2326 2330 28
1865 2331 2332 28
1866 2331 2333 28
1867 2331 2334 28
1868 2331 2335 28
1869 2336 2337 28
1870 2336 2338 28
1871 2336 2339 28
1872 2336 2340 28
1873 2341 2342 28
1874 2341 2343 28
1875 2341 2344 28
1876 2341 2345 28
1877 2346 2347 28
1878 2346 2348 28
1879 2346 2349 28
1880 2346 2350 28
1881 2351 2352 28
1882 2351 2353 28
1883 2351 2354 28
1884 2351 2355 28
1885 2356 2357 28
1886 2356 2358 28
1887 2356 2359 28
1888 2356 2360 28
1889 2361 2362 28
1890 2361 2363 28
1891 2361 2364 28
1892 2361 2365 28
1893 2366 2367 28
1894 2366 2368 28
1895 2366 2369 28
1896 2366 2370 28
1897 2371 2372 28
1898 2371 2373 28
1899 2371 2374 28
1900 2371 2375 28
1901 2376 2377 28
1902 2376 2378 28
1903 2376 2379 28
1904 2376 2380 28
1905 2381 2382 28
1906 2381 2383 28
1907 2381 2384 28
1908 2381 2385 28
1909 2386 2387 28
1910 2386 2388 28
1911 2386 2389 28
1912 2386 2390 28
1913 2391 2392 28
1914 2391 2393 28
1915 2391 2394 28
1916 2391 2395 28
1917 2396 2397 28
1918 2396 2398 28
1919 2396 2399 28
1920 2396 2400 28
1921 2401 2402 28
1922 2401 2403 28
1923 2401 2404 28
1924 2401 2405 28
1925 2406 2407 28
1926 2406 2408 28
1927 2406 2409 28
1928 2406 2410 28
1929 2411 2412 28
1930 2411 2413 28
1931 2411 2414 28
1932 2411 2415 28
1933 2416 2417 28
1934 2416 2418 28
1935 2416 2419 28
1936 2416 2420 28
1937 2421 2422 28
1938 2421 2423 28
1939 2421 2424 28
1940 2421 2425 28
1941 2426 2427 28
1942 2426 2428 28
1943 2426 2429 28
1944 2426 2430 28
1945 2431 2432 28
1946 2431 2433 28
1947 2431 2434 28
1948 2431 2435 28
1949 2436 2437 28
1950 2436 2438 28
1951 2436 2439 28
1952 2436 2440 28
1953 2441 2442 28
1954 2441 2443 28
1955 2441 2444 28
1956 2441 2445 28
1957 2446 2447 28
1958 2446 2448 28
1959 2446 2449 28
1960 2446 2450 28
1961 2451 2452 28
1962 2451 2453 28
1963 2451 2454 28
1964 2451 2455 28
1965 2456 2457 28
1966 2456 2458 28
1967 2456 2459 28
1968 2456 2460 28
1969 2461 2462 28
1970 2461 2463 28
1971 2461 2464 28
1972 2461 2465 28
1973 2466 2467 28
1974 2466 2468 28
1975 2466 2469 28
1976 2466 2470 28
1977 2471 2472 28
1978 2471 2473 28
1979 2471 2474 28
1980 2471 2475 28
1981 2476 2477 28
1982 2476 2478 28
1983 2476 2479 28
1984 2476 2480 28
1985 2481 2482 28
1986 2481 2483 28
1987 2481 2484 28
1988 2481 2485 28
1989 2486 2487 28
1990 2486 2488 28
1991 2486 2489 28
1992 2486 2490 28
1993 2491 2492 28
1994 2491 2493 28
1995 2491 2494 28
1996 2491 2495 28
1997 2496 2497 28
1998 2496 2498 28
1999 2496 2499 28
2000 2496 2500 28
2001 2501 2502 28
2002 2501 2503 28
2003 2501 2504 28
2004 2501 2505 28
2005 2506 2507 28
2006 2506 2508 28
2007 2506 2509 28
2008 2506 2510 28
2009 2511 2512 28
2010 2511 2513 28
2011 2511 2514 28
2012 2511 2515 28
2013 2516 2517 28
2014 2516 2518 28
2015 2516 2519 28
2016 2516 2520 28
2017 2521 2522 28
2018 2521 2523 28
2019 2521 2524 28
2020 2521 2525 28
2021 2526 2527 28
2022 2526 2528 28
2023 2526 2529 28
2024 2526 2530 28
2025 2531 2532 28
2026 2531 2533 28
2027 2531 2534 28
2028 2531 2535 28
2029 2536 2537 28
2030 2536 2538 28
2031 2536 2539 28
2032 2536 2540 28
2033 2541 2542 28
2034 2541 2543 28
2035 2541 2544 28
2036 2541 2545 28
2037 2546 2547 28
2038 2546 2548 28
2039 2546 2549 28
2040 2546 2550 28
2041 2551 2552 28
2042 2551 2553 28
2043 2551 2554 28
2044 2551 2555 28
2045 2556 2557 28
2046 2556 2558 28
2047 2556 2559 28
2048 2556 2560 28
2049 2561 2562 28
2050 2561 2563 28
2051 2561 2564 28
2052 2561 2565 28
2053 2566 2567 28
2054 2566 2568 28
2055 2566 2569 28
2056 2566 2570 28
2057 2571 2572 28
2058 2571 2573 28
2059 2571 2574 28
2060 2571 2575 28
2061 2576 2577 28
2062 2576 2578 28
2063 2576 2579 28
2064 2576 2580 28
2065 2581 2582 28
2066 2581 2583 28
2067 2581 2584 28
2068 2581 2585 28
2069 2586 2587 28
2070 2586 2588 28
2071 2586 2589 28
2072 2586 2590 28
2073 2591 2592 28
2074 2591 2593 28
2075 2591 2594 28
2076 2591 2595 28
2077 2596 2597 28
2078 2596 2598 28
2079 2596 2599 28
2080 2596 2600 28
2081 2601 2602 28
2082 2601 2603 28
2083 2601 2604 28
2084 2601 2605 28
2085 2606 2607 28
2086 2606 2608 28
2087 2606 2609 28
2088 2606 2610 28
2089 2611 2612 28
2090 2611 2613 28
2091 2611 2614 28
2092 2611 2615 28
2093 2616 2617 28
2094 2616 2618 28
2095 2616 2619 28
2096 2616 2620 28
2097 2621 2622 28
2098 2621 2623 28
2099 2621 2624 28
2100 2621 2625 28
2101 2626 2627 28
2102 2626 2628 28
2103 2626 2629 28
2104 2626 2630 28
2105 2631 2632 28
2106 2631 2633 28
2107 2631 2634 28
2108 2631 2635 28
2109 2636 2637 28
2110 2636 2638 28
2111 2636 2639 28
2112 2636 2640 28
2113 2641 2642 28
2114 2641 2643 28
2115 2641 2644 28
2116 2641 2645 28
2117 2646 2647 28
2118 2646 2648 28
2119 2646 2649 28
2120 2646 2650 28
2121 2651 2652 28
2122 2651 2653 28
2123 2651 2654 28
2124 2651 2655 28
2125 2656 2657 28
2126 2656 2658 28
2127 2656 2659 28
2128 2656 2660 28
2129 2661 2662 28
2130 2661 2663 28
2131 2661 2664 28
2132 2661 2665 28
2133 2666 2667 28
2134 2666 2668 28
2135 2666 2669 28
2136 2666 2670 28
2137 2671 2672 28
2138 2671 2673 28
2139 2671 2674 28
2140 2671 2675 28
2141 2676 2677 28
2142 2676 2678 28
2143 2676 2679 28
2144 2676 2680 28
2145 2681 2682 28
2146 2681 2683 28
2147 2681 2684 28
2148 2681 2685 28
2149 2686 2687 28
2150 2686 2688 28
2151 2686 2689 28
2152 2686 2690 28
2153 2691 2692 28
2154 2691 2693 28
2155 2691 2694 28
2156 2691 2695 28
2157 2696 2697 28
2158 2696 2698 28
2159 2696 2699 28
2160 2696 2700 28
2161 2701 2702 28
2162 2701 2703 28
2163 2701 2704 28
2164 2701 2705 28
2165 2706 2707 28
2166 2706 2708 28
2167 2706 2709 28
2168 2706 2710 28
2169 2711 2712 28
2170 2711 2713 28
2171 2711 2714 28
2172 2711 2715 28
2173 2716 2717 28
2174 2716 2718 28
2175 2716 2719 28
2176 2716 2720 28
2177 2721 2722 28
2178 2721 2723 28
2179 2721 2724 28
2180 2721 2725 28
2181 2726 2727 28
2182 2726 2728 28
2183 2726 2729 28
2184 2726 2730 28
2185 2731 2732 28
2186 2731 2733 28
2187 2731 2734 28
2188 2731 2735 28
2189 2736 2737 28
2190 2736 2738 28
2191 2736 2739 28
2192 2736 2740 28
2193 2741 2742 28
2194 2741 2743 28
2195 2741 2744 28
2196 2741 2745 28
2197 2746 2747 28
2198 2746 2748 28
2199 2746 2749 28
2200 2746 2750 28
2201 2751 2752 28
2202 2751 2753 28
2203 2751 2754 28
2204 2751 2755 28
2205 2756 2757 28
2206 2756 2758 28
2207 2756 2759 28
2208 2756 2760 28
2209 2761 2762 28
2210 2761 2763 28
2211 2761 2764 28
2212 2761 2765 28
2213 2766 2767 28
2214 2766 2768 28
2215 2766 2769 28
2216 2766 2770 28
2217 2771 2772 28
2218 2771 2773 28
2219 2771 2774 28
2220 2771 2775 28
2221 2776 2777 28
2222 2776 2778 28
2223 2776 2779 28
2224 2776 2780 28
2225 2781 2782 28
2226 2781 2783 28
2227 2781 2784 28
2228 2781 2785 28
2229 2786 2787 28
2230 2786 2788 28
2231 2786 2789 28
2232 2786 2790 28
2233 2791 2792 28
2234 2791 2793 28
2235 2791 2794 28
2236 2791 2795 28
2237 2796 2797 28
2238 2796 2798 28
2239 2796 2799 28
2240 2796 2800 28
2241 2801 2802 28
2242 2801 2803 28
2243 2801 2804 28
2244 2801 2805 28
2245 2806 2807 28
2246 2806 2808 28
2247 2806 2809 28
2248 2806 2810 28
2249 2811 2812 28
2250 2811 2813 28
2251 2811 2814 28
2252 2811 2815 28
2253 2816 2817 28
2254 2816 2818 28
2255 2816 2819 28
2256 2816 2820 28
2257 2821 2822 28
2258 2821 2823 28
2259 2821 2824 28
2260 2821 2825 28
2261 2826 2827 28
2262 2826 2828 28
2263 2826 2829 28
2264 2826 2830 28
2265 2831 2832 28
2266 2831 2833 28
2267 2831 2834 28
2268 2831 2835 28
2269 2836 2837 28
2270 2836 2838 28
2271 2836 2839 28
2272 2836 2840 28
2273 2841 2842 28
2274 2841 2843 28
2275 2841 2844 28
2276 2841 2845 28
2277 2846 2847 28
2278 2846 2848 28
2279 2846 2849 28
2280 2846 2850 28
2281 2851 2852 28
2282 2851 2853 28
2283 2851 2854 28
2284 2851 2855 28
2285 2856 2857 28
2286 2856 2858 28
2287 2856 2859 28
2288 2856 2860 28
2289 2861 2862 28
2290 2861 2863 28
2291 2861 2864 28
2292 2861 2865 28
2293 2866 2867 28
2294 2866 2868 28
2295 2866 2869 28
2296 2866 2870 28
2297 2871 2872 28
2298 2871 2873 28
2299 2871 2874 28
2300 2871 2875 28
2301 2876 2877 28
2302 2876 2878 28
2303 2876 2879 28
2304 2876 2880 28
2305 2881 2882 28
2306 2881 2883 28
2307 2881 2884 28
2308 2881 2885 28
2309 2886 2887 28
2310 2886 2888 28
2311 2886 2889 28
2312 2886 2890 28
2313 2891 2892 28
2314 2891 2893 28
2315 2891 2894 28
2316 2891 2895 28
2317 2896 2897 28
2318 2896 2898 28
2319 2896 2899 28
2320 2896 2900 28
2321 2901 2902 28
2322 2901 2903 28
2323 2901 2904 28
2324 2901 2905 28
2325 2906 2907 28
2326 2906 2908 28
2327 2906 2909 28
2328 2906 2910 28
2329 2911 2912 28
2330 2911 2913 28
2331 2911 2914 28
2332 2911 2915 28
2333 2916 2917 28
2334 2916 2918 28
2335 2916 2919 28
2336 2916 2920 28
2337 2921 2922 28
2338 2921 2923 28
2339 2921 2924 28
2340 2921 2925 28
2341 2926 2927 28
2342 2926 2928 28
2343 2926 2929 28
2344 2926 2930 28
2345 2931 2932 28
2346 2931 2933 28
2347 2931 2934 28
2348 2931 2935 28
2349 2936 2937 28
2350 2936 2938 28
2351 2936 2939 28
2352 2936 2940 28
2353 2941 2942 28
2354 2941 2943 28
2355 2941 2944 28
2356 2941 2945 28
2357 2946 2947 28
2358 2946 2948 28
2359 2946 2949 28
2360 2946 2950 28
2361 2951 2952 28
2362 2951 2953 28
2363 2951 2954 28
2364 2951 2955 28
2365 2956 2957 28
2366 2956 2958 28
2367 2956 2959 28
2368 2956 2960 28
2369 2961 2962 28
2370 2961 2963 28
2371 2961 2964 28
2372 2961 2965 28
2373 2966 2967 28
2374 2966 2968 28
2375 2966 2969 28
2376 2966 2970 28
2377 2971 2972 28
2378 2971 2973 28
2379 2971 2974 28
2380 2971 2975 28
2381 2976 2977 28
2382 2976 2978 28
2383 2976 2979 28
2384 2976 2980 28
2385 2981 2982 28
2386 2981 2983 28
2387 2981 2984 28
2388 2981 2985 28
2389 2986 2987 28
2390 2986 2988 28
2391 2986 2989 28
2392 2986 2990 28
2393 2991 2992 28
2394 2991 2993 28
2395 2991 2994 28
2396 2991 2995 28
2397 2996 2997 28
2398 2996 2998 28
2399 2996 2999 28
2400 2996 3000 28
2401 3001 3002 28
2402 3001 3003 28
2403 3001 3004 28
2404 3001 3005 28
2405 3006 3007 28
2406 3006 3008 28
2407 3006 3009 28
2408 3006 3010 28
2409 3011 3012 28
2410 3011 3013 28
2411 3011 3014 28
2412 3011 3015 28
2413 3016 3017 28
2414 3016 3018 28
2415 3016 3019 28
2416 3016 3020 28
2417 3021 3022 28
2418 3021 3023 28
2419 3021 3024 28
2420 3021 3025 28
2421 3026 3027 28
2422 3026 3028 28
2423 3026 3029 28
2424 3026 3030 28
2425 3031 3032 28
2426 3031 3033 28
2427 3031 3034 28
2428 3031 3035 28
2429 3036 3037 28
2430 3036 3038 28
2431 3036 3039 28
2432 3036 3040 28
2433 3041 3042 28
2434 3041 3043 28
2435 3041 3044 28
2436 3041 3045 28
2437 3046 3047 28
2438 3046 3048 28
2439 3046 3049 28
2440 3046 3050 28
2441 3051 3052 28
2442 3051 3053 28
2443 3051 3054 28
2444 3051 3055 28
2445 3056 3057 28
2446 3056 3058 28
2447 3056 3059 28
2448 3056 3060 28
2449 3061 3062 28
2450 3061 3063 28
2451 3061 3064 28
2452 3061 3065 28
2453 3066 3067 28
2454 3066 3068 28
2455 3066 3069 28
2456 3066 3070 28
2457 3071 3072 28
2458 3071 3073 28
2459 3071 3074 28
2460 3071 3075 28
2461 3076 3077 28
2462 3076 3078 28
2463 3076 3079 28
2464 3076 3080 28
2465 3081 3082 28
2466 3081 3083 28
2467 3081 3084 28
2468 3081 3085 28
2469 3086 3087 28
2470 3086 3088 28
2471 3086 3089 28
2472 3086 3090 28
2473 3091 3092 28
2474 3091 3093 28
2475 3091 3094 28
2476 3091 3095 28
2477 3096 3097 28
2478 3096 3098 28
2479 3096 3099 28
2480 3096 3100 28
2481 3101 3102 28
2482 3101 3103 28
2483 3101 3104 28
2484 3101 3105 28
2485 3106 3107 28
2486 3106 3108 28
2487 3106 3109 28
2488 3106 3110 28
2489 3111 3112 28
2490 3111 3113 28
2491 3111 3114 28
2492 3111 3115 28
2493 3116 3117 28
2494 3116 3118 28
2495 3116 3119 28
2496 3116 3120 28
2497 3121 3122 28
2498 3121 3123 28
2499 3121 3124 28
2500 3121 3125 28
2501 3126 3127 28
2502 3126 3128 28
2503 3126 3129 28
2504 3126 3130 28
2505 3131 3132 28
2506 3131 3133 28
2507 3131 3134 28
2508 3131 3135 28
2509 3136 3137 28
2510 3136 3138 28
2511 3136 3139 28
2512 3136 3140 28
2513 3141 3142 28
2514 3141 3143 28
2515 3141 3144 28
2516 3141 3145 28
2517 3146 3147 28
2518 3146 3148 28
2519 3146 3149 28
2520 3146 3150 28
2521 3151 3152 28
2522 3151 3153 28
2523 3151 3154 28
2524 3151 3155 28
2525 3156 3157 28
2526 3156 3158 28
2527 3156 3159 28
2528 3156 3160 28
2529 3161 3162 28
2530 3161 3163 28
2531 3161 3164 28
2532 3161 3165 28
2533 3166 3167 28
2534 3166 3168 28
2535 3166 3169 28
2536 3166 3170 28
2537 3171 3172 28
2538 3171 3173 28
2539 3171 3174 28
2540 3171 3175 28
2541 3176 3177 28
2542 3176 3178 28
2543 3176 3179 28
2544 3176 3180 28
2545 3181 3182 28
2546 3181 3183 28
2547 3181 3184 28
2548 3181 3185 28
2549 3186 3187 28
2550 3186 3188 28
2551 3186 3189 28
2552 3186 3190 28
2553 3191 3192 28
2554 3191 3193 28
2555 3191 3194 28
2556 3191 3195 28
2557 3196 3197 28
2558 3196 3198 28
2559 3196 3199 28
2560 3196 3200 28
2561 3201 3202 28
2562 3201 3203 28
2563 3201 3204 28
2564 3201 3205 28
2565 3206 3207 28
2566 3206 3208 28
2567 3206 3209 28
2568 3206 3210 28
2569 3211 3212 28
2570 3211 3213 28
2571 3211 3214 28
2572 3211 3215 28
2573 3216 3217 28
2574 3216 3218 28
2575 3216 3219 28
2576 3216 3220 28
2577 3221 3222 28
2578 3221 3223 28
2579 3221 3224 28
2580 3221 3225 28
2581 3226 3227 28
2582 3226 3228 28
2583 3226 3229 28
2584 3226 3230 28
2585 3231 3232 28
2586 3231 3233 28
2587 3231 3234 28
2588 3231 3235 28
2589 3236 3237 28
2590 3236 3238 28
2591 3236 3239 28
2592 3236 3240 28
2593 3241 3242 28
2594 3241 3243 28
2595 3241 3244 28
2596 3241 3245 28
2597 3246 3247 28
2598 3246 3248 28
2599 3246 3249 28
2600 3246 3250 28
2601 3251 3252 28
2602 3251 3253 28
2603 3251 3254 28
2604 3251 3255 28
2605 3256 3257 28
2606 3256 3258 28
2607 3256 3259 28
2608 3256 3260 28
2609 3261 3262 28
2610 3261 3263 28
2611 3261 3264 28
2612 3261 3265 28
2613 3266 3267 28
2614 3266 3268 28
2615 3266 3269 28
2616 3266 3270 28
2617 3271 3272 28
2618 3271 3273 28
2619 3271 3274 28
2620 3271 3275 28
2621 3276 3277 28
2622 3276 3278 28
2623 3276 3279 28
2624 3276 3280 28
2625 3281 3282 28
2626 3281 3283 28
2627 3281 3284 28
2628 3281 3285 28
2629 3286 3287 28
2630 3286 3288 28
2631 3286 3289 28
2632 3286 3290 28
2633 3291 3292 28
2634 3291 3293 28
2635 3291 3294 28
2636 3291 3295 28
2637 3296 3297 28
2638 3296 3298 28
2639 3296 3299 28
2640 3296 3300 28
2641 3301 3302 28
2642 3301 3303 28
2643 3301 3304 28
2644 3301 3305 28
2645 3306 3307 28
2646 3306 3308 28
2647 3306 3309 28
2648 3306 3310 28
2649 3311 3312 28
2650 3311 3313 28
2651 3311 3314 28
2652 3311 3315 28
2653 3316 3317 28
2654 3316 3318 28
2655 3316 3319 28
2656 3316 3320 28
2657 3321 3322 28
2658 3321 3323 28
2659 3321 3324 28
2660 3321 3325 28
2661 3326 3327 28
2662 3326 3328 28
2663 3326 3329 28
2664 3326 3330 28
2665 3331 3332 28
2666 3331 3333 28
2667 3331 3334 28
2668 3331 3335 28
2669 3336 3337 28
2670 3336 3338 28
2671 3336 3339 28
2672 3336 3340 28
2673 3341 3342 28
2674 3341 3343 28
2675 3341 3344 28
2676 3341 3345 28
2677 3346 3347 28
2678 3346 3348 28
2679 3346 3349 28
2680 3346 3350 28
2681 3351 3352 28
2682 3351 3353 28
2683 3351 3354 28
2684 3351 3355 28
2685 3356 3357 28
2686 3356 3358 28
2687 3356 3359 28
2688 3356 3360 28
2689 3361 3362 28
2690 3361 3363 28
2691 3361 3364 28
2692 3361 3365 28
2693 3366 3367 28
2694 3366 3368 28
2695 3366 3369 28
2696 3366 3370 28
2697 3371 3372 28
2698 3371 3373 28
2699 3371 3374 28
2700 3371 3375 28
2701 3376 3377 28
2702 3376 3378 28
2703 3376 3379 28
2704 3376 3380 28
2705 3381 3382 28
2706 3381 3383 28
2707 3381 3384 28
2708 3381 3385 28
2709 3386 3387 28
2710 3386 3388 28
2711 3386 3389 28
2712 3386 3390 28
2713 3391 3392 28
2714 3391 3393 28
2715 3391 3394 28
2716 3391 3395 28
2717 3396 3397 28
2718 3396 3398 28
2719 3396 3399 28
2720 3396 3400 28
2721 3401 3402 28
2722 3401 3403 28
2723 3401 3404 28
2724 3401 3405 28
2725 3406 3407 28
2726 3406 3408 28
2727 3406 3409 28
2728 3406 3410 28
2729 3411 3412 28
2730 3411 3413 28
2731 3411 3414 28
2732 3411 3415 28
2733 3416 3417 28
2734 3416 3418 28
2735 3416 3419 28
2736 3416 3420 28
2737 3421 3422 28
2738 3421 3423 28
2739 3421 3424 28
2740 3421 3425 28
2741 3426 3427 28
2742 3426 3428 28
2743 3426 3429 28
2744 3426 3430 28
2745 3431 3432 28
2746 3431 3433 28
2747 3431 3434 28
2748 3431 3435 28
2749 3436 3437 28
2750 3436 3438 28
2751 3436 3439 28
2752 3436 3440 28
2753 3441 3442 28
2754 3441 3443 28
2755 3441 3444 28
2756 3441 3445 28
2757 3446 3447 28
2758 3446 3448 28
2759 3446 3449 28
2760 3446 3450 28
2761 3451 3452 28
2762 3451 3453 28
2763 3451 3454 28
2764 3451 3455 28
2765 3456 3457 28
2766 3456 3458 28
2767 3456 3459 28
2768 3456 3460 28
2769 3461 3462 28
2770 3461 3463 28
2771 3461 3464 28
2772 3461 3465 28
2773 3466 3467 28
2774 3466 3468 28
2775 3466 3469 28
2776 3466 3470 28
2777 3471 3472 28
2778 3471 3473 28
2779 3471 3474 28
2780 3471 3475 28
2781 3476 3477 28
2782 3476 3478 28
2783 3476 3479 28
2784 3476 3480 28
2785 3481 3482 28
2786 3481 3483 28
2787 3481 3484 28
2788 3481 3485 28
2789 3486 3487 28
2790 3486 3488 28
2791 3486 3489 28
2792 3486 3490 28
2793 3491 3492 28
2794 3491 3493 28
2795 3491 3494 28
2796 3491 3495 28
2797 3496 3497 28
2798 3496 3498 28
2799 3496 3499 28
2800 3496 3500 28
2801 3501 3502 28
2802 3501 3503 28
2803 3501 3504 28
2804 3501 3505 28
2805 3506 3507 28
2806 3506 3508 28
2807 3506 3509 28
2808 3506 3510 28
2809 3511 3512 28
2810 3511 3513 28
2811 3511 3514 28
2812 3511 3515 28
2813 3516 3517 28
2814 3516 3518 28
2815 3516 3519 28
2816 3516 3520 28
2817 3521 3522 28
2818 3521 3523 28
2819 3521 3524 28
2820 3521 3525 28
2821 3526 3527 28
2822 3526 3528 28
2823 3526 3529 28
2824 3526 3530 28
2825 3531 3532 28
2826 3531 3533 28
2827 3531 3534 28
2828 3531 3535 28
2829 3536 3537 28
2830 3536 3538 28
2831 3536 3539 28
2832 3536 3540 28
2833 3541 3542 28
2834 3541 3543 28
2835 3541 3544 28
2836 3541 3545 28
2837 3546 3547 28
2838 3546 3548 28
2839 3546 3549 28
2840 3546 3550 28
2841 3551 3552 28
2842 3551 3553 28
2843 3551 3554 28
2844 3551 3555 28
2845 3556 3557 28
2846 3556 3558 28
2847 3556 3559 28
2848 3556 3560 28
2849 3561 3562 28
2850 3561 3563 28
2851 3561 3564 28
2852 3561 3565 28
2853 3566 3567 28
2854 3566 3568 28
2855 3566 3569 28
2856 3566 3570 28
2857 3571 3572 28
2858 3571 3573 28
2859 3571 3574 28
2860 3571 3575 28
2861 3576 3577 28
2862 3576 3578 28
2863 3576 3579 28
2864 3576 3580 28
2865 3581 3582 28
2866 3581 3583 28
2867 3581 3584 28
2868 3581 3585 28
2869 3586 3587 28
2870 3586 3588 28
2871 3586 3589 28
2872 3586 3590 28
2873 3591 3592 28
2874 3591 3593 28
2875 3591 3594 28
2876 3591 3595 28
2877 3596 3597 28
2878 3596 3598 28
2879 3596 3599 28
2880 3596 3600 28
2881 3601 3602 28
2882 3601 3603 28
2883 3601 3604 28
2884 3601 3605 28
2885 3606 3607 28
2886 3606 3608 28
2887 3606 3609 28
2888 3606 3610 28
2889 3611 3612 28
2890 3611 3613 28
2891 3611 3614 28
2892 3611 3615 28
2893 3616 3617 28
2894 3616 3618 28
2895 3616 3619 28
2896 3616 3620 28
2897 3621 3622 28
2898 3621 3623 28
2899 3621 3624 28
2900 3621 3625 28
2901 3626 3627 28
2902 3626 3628 28
2903 3626 3629 28
2904 3626 3630 28
2905 3631 3632 28
2906 3631 3633 28
2907 3631 3634 28
2908 3631 3635 28
2909 3636 3637 28
2910 3636 3638 28
2911 3636 3639 28
2912 3636 3640 28
2913 3641 3642 28
2914 3641 3643 28
2915 3641 3644 28
2916 3641 3645 28
2917 3646 3647 28
2918 3646 3648 28
2919 3646 3649 28
2920 3646 3650 28
2921 3651 3652 28
2922 3651 3653 28
2923 3651 3654 28
2924 3651 3655 28
2925 3656 3657 28
2926 3656 3658 28
2927 3656 3659 28
2928 3656 3660 28
2929 3661 3662 28
2930 3661 3663 28
2931 3661 3664 28
2932 3661 3665 28
2933 3666 3667 28
2934 3666 3668 28
2935 3666 3669 28
2936 3666 3670 28
2937 3671 3672 28
2938 3671 3673 28
2939 3671 3674 28
2940 3671 3675 28
2941 3676 3677 28
2942 3676 3678 28
2943 3676 3679 28
2944 3676 3680 28
2945 3681 3682 28
2946 3681 3683 28
2947 3681 3684 28
2948 3681 3685 28
2949 3686 3687 28
2950 3686 3688 28
2951 3686 3689 28
2952 3686 3690 28
2953 3691 3692 28
2954 3691 3693 28
2955 3691 3694 28
2956 3691 3695 28
2957 3696 3697 28
2958 3696 3698 28
2959 3696 3699 28
2960 3696 3700 28
2961 3701 3702 28
2962 3701 3703 28
2963 3701 3704 28
2964 3701 3705 28
2965 3706 3707 28
2966 3706 3708 28
2967 3706 3709 28
2968 3706 3710 28
2969 3711 3712 28
2970 3711 3713 28
2971 3711 3714 28
2972 3711 3715 28
2973 3716 3717 28
2974 3716 3718 28
2975 3716 3719 28
2976 3716 3720 28
2977 3721 3722 28
2978 3721 3723 28
2979 3721 3724 28
2980 3721 3725 28
2981 3726 3727 28
2982 3726 3728 28
2983 3726 3729 28
2984 3726 3730 28
2985 3731 3732 28
2986 3731 3733 28
2987 3731 3734 28
2988 3731 3735 28
2989 3736 3737 28
2990 3736 3738 28
2991 3736 3739 28
2992 3736 3740 28
2993 3741 3742 28
2994 3741 3743 28
2995 3741 3744 28
2996 3741 3745 28
2997 3746 3747 28
2998 3746 3748 28
2999 3746 3749 28
3000 3746 3750 28
3001 3751 3752 28
3002 3751 3753 28
3003 3751 3754 28
3004 3751 3755 28
3005 3756 3757 28
3006 3756 3758 28
3007 3756 3759 28
3008 3756 3760 28
3009 3761 3762 28
3010 3761 3763 28
3011 3761 3764 28
3012 3761 3765 28
3013 3766 3767 28
3014 3766 3768 28
3015 3766 3769 28
3016 3766 3770 28
3017 3771 3772 28
3018 3771 3773 28
3019 3771 3774 28
3020 3771 3775 28
3021 3776 3777 28
3022 3776 3778 28
3023 3776 3779 28
3024 3776 3780 28
3025 3781 3782 28
3026 3781 3783 28
3027 3781 3784 28
3028 3781 3785 28
3029 3786 3787 28
3030 3786 3788 28
3031 3786 3789 28
3032 3786 3790 28
3033 3791 3792 28
3034 3791 3793 28
3035 3791 3794 28
3036 3791 3795 28
3037 3796 3797 28
3038 3796 3798 28
3039 3796 3799 28
3040 3796 3800 28
3041 3801 3802 28
3042 3801 3803 28
3043 3801 3804 28
3044 3801 3805 28
3045 3806 3807 28
3046 3806 3808 28
3047 3806 3809 28
3048 3806 3810 28
3049 3811 3812 28
3050 3811 3813 28
3051 3811 3814 28
3052 3811 3815 28
3053 3816 3817 28
3054 3816 3818 28
3055 3816 3819 28
3056 3816 3820 28
3057 3821 3822 28
3058 3821 3823 28
3059 3821 3824 28
3060 3821 3825 28
3061 3826 3827 28
3062 3826 3828 28
3063 3826 3829 28
3064 3826 3830 28
3065 3831 3832 28
3066 3831 3833 28
3067 3831 3834 28
3068 3831 3835 28
3069 3836 3837 28
3070 3836 3838 28
3071 3836 3839 28
3072 3836 3840 28
3073 3841 3842 28
3074 3841 3843 28
3075 3841 3844 28
3076 3841 3845 28
3077 3846 3847 28
3078 3846 3848 28
3079 3846 3849 28
3080 3846 3850 28
3081 3851 3852 28
3082 3851 3853 28
3083 3851 3854 28
3084 3851 3855 28
3085 3856 3857 28
3086 3856 3858 28
3087 3856 3859 28
3088 3856 3860 28
3089 3861 3862 28
3090 3861 3863 28
3091 3861 3864 28
3092 3861 3865 28
3093 3866 3867 28
3094 3866 3868 28
3095 3866 3869 28
3096 3866 3870 28
3097 3871 3872 28
3098 3871 3873 28
3099 3871 3874 28
3100 3871 3875 28
3101 3876 3877 28
3102 3876 3878 28
3103 3876 3879 28
3104 3876 3880 28
3105 3881 3882 28
3106 3881 3883 28
3107 3881 3884 28
3108 3881 3885 28
3109 3886 3887 28
3110 3886 3888 28
3111 3886 3889 28
3112 3886 3890 28
3113 3891 3892 28
3114 3891 3893 28
3115 3891 3894 28
3116 3891 3895 28
3117 3896 3897 28
3118 3896 3898 28
3119 3896 3899 28
3120 3896 3900 28
3121 3901 3902 28
3122 3901 3903 28
3123 3901 3904 28
3124 3901 3905 28
3125 3906 3907 28
3126 3906 3908 28
3127 3906 3909 28
3128 3906 3910 28
3129 3911 3912 28
3130 3911 3913 28
3131 3911 3914 28
3132 3911 3915 28
3133 3916 3917 28
3134 3916 3918 28
3135 3916 3919 28
3136 3916 3920 28
3137 3921 3922 28
3138 3921 3923 28
3139 3921 3924 28
3140 3921 3925 28
3141 3926 3927 28
3142 3926 3928 28
3143 3926 3929 28
3144 3926 3930 28
3145 3931 3932 28
3146 3931 3933 28
3147 3931 3934 28
3148 3931 3935 28
3149 3936 3937 28
3150 3936 3938 28
3151 3936 3939 28
3152 3936 3940 28
3153 3941 3942 28
3154 3941 3943 28
3155 3941 3944 28
3156 3941 3945 28
3157 3946 3947 28
3158 3946 3948 28
3159 3946 3949 28
3160 3946 3950 28
3161 3951 3952 28
3162 3951 3953 28
3163 3951 3954 28
3164 3951 3955 28
3165 3956 3957 28
3166 3956 3958 28
3167 3956 3959 28
3168 3956 3960 28
3169 3961 3962 28
3170 3961 3963 28
3171 3961 3964 28
3172 3961 3965 28
3173 3966 3967 28
3174 3966 3968 28
3175 3966 3969 28
3176 3966 3970 28
3177 3971 3972 28
3178 3971 3973 28
3179 3971 3974 28
3180 3971 3975 28
3181 3976 3977 28
3182 3976 3978 28
3183 3976 3979 28
3184 3976 3980 28
3185 3981 3982 28
3186 3981 3983 28
3187 3981 3984 28
3188 3981 3985 28
3189 3986 3987 28
3190 3986 3988 28
3191 3986 3989 28
3192 3986 3990 28
3193 3991 3992 28
3194 3991 3993 28
3195 3991 3994 28
3196 3991 3995 28
3197 3996 3997 28
3198 3996 3998 28
3199 3996 3999 28
3200 3996 4000 28
3201 4001 4002 28
3202 4001 4003 28
3203 4001 4004 28
3204 4001 4005 28
3205 4006 4007 28
3206 4006 4008 28
3207 4006 4009 28
3208 4006 4010 28
3209 4011 4012 28
3210 4011 4013 28
3211 4011 4014 28
3212 4011 4015 28
3213 4016 4017 28
3214 4016 4018 28
3215 4016 4019 28
3216 4016 4020 28
3217 4021 4022 28
3218 4021 4023 28
3219 4021 4024 28
3220 4021 4025 28
3221 4026 4027 28
3222 4026 4028 28
3223 4026 4029 28
3224 4026 4030 28
3225 4031 4032 28
3226 4031 4033 28
3227 4031 4034 28
3228 4031 4035 28
3229 4036 4037 28
3230 4036 4038 28
3231 4036 4039 28
3232 4036 4040 28
3233 4041 4042 28
3234 4041 4043 28
3235 4041 4044 28
3236 4041 4045 28
3237 4046 4047 28
3238 4046 4048 28
3239 4046 4049 28
3240 4046 4050 28
3241 4051 4052 28
3242 4051 4053 28
3243 4051 4054 28
3244 4051 4055 28
3245 4056 4057 28
3246 4056 4058 28
3247 4056 4059 28
3248 4056 4060 28
3249 4061 4062 28
3250 4061 4063 28
3251 4061 4064 28
3252 4061 4065 28
3253 4066 4067 28
3254 4066 4068 28
3255 4066 4069 28
3256 4066 4070 28
3257 4071 4072 28
3258 4071 4073 28
3259 4071 4074 28
3260 4071 4075 28
3261 4076 4077 28
3262 4076 4078 28
3263 4076 4079 28
3264 4076 4080 28
3265 4081 4082 28
3266 4081 4083 28
3267 4081 4084 28
3268 4081 4085 28
3269 4086 4087 28
3270 4086 4088 28
3271 4086 4089 28
3272 4086 4090 28
3273 4091 4092 28
3274 4091 4093 28
3275 4091 4094 28
3276 4091 4095 28
3277 4096 4097 28
3278 4096 4098 28
3279 4096 4099 28
3280 4096 4100 28
3281 4101 4102 28
3282 4101 4103 28
3283 4101 4104 28
3284 4101 4105 28
3285 4106 4107 28
3286 4106 4108 28
3287 4106 4109 28
3288 4106 4110 28
3289 4111 4112 28
3290 4111 4113 28
3291 4111 4114 28
3292 4111 4115 28
3293 4116 4117 28
3294 4116 4118 28
3295 4116 4119 28
3296 4116 4120 28
3297 4121 4122 28
3298 4121 4123 28
3299 4121 4124 28
3300 4121 4125 28
3301 4126 4127 28
3302 4126 4128 28
3303 4126 4129 28
3304 4126 4130 28
3305 4131 4132 28
3306 4131 4133 28
3307 4131 4134 28
3308 4131 4135 28
3309 4136 4137 28
3310 4136 4138 28
3311 4136 4139 28
3312 4136 4140 28
3313 4141 4142 28
3314 4141 4143 28
3315 4141 4144 28
3316 4141 4145 28
3317 4146 4147 28
3318 4146 4148 28
3319 4146 4149 28
3320 4146 4150 28
3321 4151 4152 28
3322 4151 4153 28
3323 4151 4154 28
3324 4151 4155 28
3325 4156 4157 28
3326 4156 4158 28
3327 4156 4159 28
3328 4156 4160 28
3329 4161 4162 28
3330 4161 4163 28
3331 4161 4164 28
3332 4161 4165 28
3333 4166 4167 28
3334 4166 4168 28
3335 4166 4169 28
3336 4166 4170 28
3337 4171 4172 28
3338 4171 4173 28
3339 4171 4174 28
3340 4171 4175 28
3341 4176 4177 28
3342 4176 4178 28
3343 4176 4179 28
3344 4176 4180 28
3345 4181 4182 28
3346 4181 4183 28
3347 4181 4184 28
3348 4181 4185 28
3349 4186 4187 28
3350 4186 4188 28
3351 4186 4189 28
3352 4186 4190 28
3353 4191 4192 28
3354 4191 4193 28
3355 4191 4194 28
3356 4191 4195 28
3357 4196 4197 28
3358 4196 4198 28
3359 4196 4199 28
3360 4196 4200 28
3361 4201 4202 28
3362 4201 4203 28
3363 4201 4204 28
3364 4201 4205 28
3365 4206 4207 28
3366 4206 4208 28
3367 4206 4209 28
3368 4206 4210 28
3369 4211 4212 28
3370 4211 4213 28
3371 4211 4214 28
3372 4211 4215 28
3373 4216 4217 28
3374 4216 4218 28
3375 4216 4219 28
3376 4216 4220 28
3377 4221 4222 28
3378 4221 4223 28
3379 4221 4224 28
3380 4221 4225 28
3381 4226 4227 28
3382 4226 4228 28
3383 4226 4229 28
3384 4226 4230 28
3385 4231 4232 28
3386 4231 4233 28
3387 4231 4234 28
3388 4231 4235 28
3389 4236 4237 28
3390 4236 4238 28
3391 4236 4239 28
3392 4236 4240 28
3393 4241 4242 28
3394 4241 4243 28
3395 4241 4244 28
3396 4241 4245 28
3397 4246 4247 28
3398 4246 4248 28
3399 4246 4249 28
3400 4246 4250 28
3401 4251 4252 28
3402 4251 4253 28
3403 4251 4254 28
3404 4251 4255 28
3405 4256 4257 28
3406 4256 4258 28
3407 4256 4259 28
3408 4256 4260 28
3409 4261 4262 28
3410 4261 4263 28
3411 4261 4264 28
3412 4261 4265 28
3413 4266 4267 28
3414 4266 4268 28
3415 4266 4269 28
3416 4266 4270 28
3417 4271 4272 28
3418 4271 4273 28
3419 4271 4274 28
3420 4271 4275 28
3421 4276 4277 28
3422 4276 4278 28
3423 4276 4279 28
3424 4276 4280 28
3425 4281 4282 28
3426 4281 4283 28
3427 4281 4284 28
3428 4281 4285 28
3429 4286 4287 28
3430 4286 4288 28
3431 4286 4289 28
3432 4286 4290 28
3433 4291 4292 28
3434 4291 4293 28
3435 4291 4294 28
3436 4291 4295 28
3437 4296 4297 28
3438 4296 4298 28
3439 4296 4299 28
3440 4296 4300 28
3441 4301 4302 28
3442 4301 4303 28
3443 4301 4304 28
3444 4301 4305 28
3445 4306 4307 28
3446 4306 4308 28
3447 4306 4309 28
3448 4306 4310 28
3449 4311 4312 28
3450 4311 4313 28
3451 4311 4314 28
3452 4311 4315 28
3453 4316 4317 28
3454 4316 4318 28
3455 4316 4319 28
3456 4316 4320 28
3457 4321 4322 28
3458 4321 4323 28
3459 4321 4324 28
3460 4321 4325 28
3461 4326 4327 28
3462 4326 4328 28
3463 4326 4329 28
3464 4326 4330 28
3465 4331 4332 28
3466 4331 4333 28
3467 4331 4334 28
3468 4331 4335 28
3469 4336 4337 28
3470 4336 4338 28
3471 4336 4339 28
3472 4336 4340 28
3473 4341 4342 28
3474 4341 4343 28
3475 4341 4344 28
3476 4341 4345 28
3477 4346 4347 28
3478 4346 4348 28
3479 4346 4349 28
3480 4346 4350 28
3481 4351 4352 28
3482 4351 4353 28
3483 4351 4354 28
3484 4351 4355 28
3485 4356 4357 28
3486 4356 4358 28
3487 4356 4359 28
3488 4356 4360 28
3489 4361 4362 28
3490 4361 4363 28
3491 4361 4364 28
3492 4361 4365 28
3493 4366 4367 28
3494 4366 4368 28
3495 4366 4369 28
3496 4366 4370 28
3497 4371 4372 28
3498 4371 4373 28
3499 4371 4374 28
3500 4371 4375 28
3501 4376 4377 28
3502 4376 4378 28
3503 4376 4379 28
3504 4376 4380 28
3505 4381 4382 28
3506 4381 4383 28
3507 4381 4384 28
3508 4381 4385 28
3509 4386 4387 28
3510 4386 4388 28
3511 4386 4389 28
3512 4386 4390 28
3513 4391 4392 28
3514 4391 4393 28
3515 4391 4394 28
3516 4391 4395 28
3517 4396 4397 28
3518 4396 4398 28
3519 4396 4399 28
3520 4396 4400 28
3521 4401 4402 28
3522 4401 4403 28
3523 4401 4404 28
3524 4401 4405 28
3525 4406 4407 28
3526 4406 4408 28
3527 4406 4409 28
3528 4406 4410 28
3529 4411 4412 28
3530 4411 4413 28
3531 4411 4414 28
3532 4411 4415 28
3533 4416 4417 28
3534 4416 4418 28
3535 4416 4419 28
3536 4416 4420 28
3537 4421 4422 28
3538 4421 4423 28
3539 4421 4424 28
3540 4421 4425 28
3541 4426 4427 28
3542 4426 4428 28
3543 4426 4429 28
3544 4426 4430 28
3545 4431 4432 28
3546 4431 4433 28
3547 4431 4434 28
3548 4431 4435 28
3549 4436 4437 28
3550 4436 4438 28
3551 4436 4439 28
3552 4436 4440 28
3553 4441 4442 28
3554 4441 4443 28
3555 4441 4444 28
3556 4441 4445 28
3557 4446 4447 28
3558 4446 4448 28
3559 4446 4449 28
3560 4446 4450 28
3561 4451 4452 28
3562 4451 4453 28
3563 4451 4454 28
3564 4451 4455 28
3565 4456 4457 28
3566 4456 4458 28
3567 4456 4459 28
3568 4456 4460 28
3569 4461 4462 28
3570 4461 4463 28
3571 4461 4464 28
3572 4461 4465 28
3573 4466 4467 28
3574 4466 4468 28
3575 4466 4469 28
3576 4466 4470 28
3577 4471 4472 28
3578 4471 4473 28
3579 4471 4474 28
3580 4471 4475 28
3581 4476 4477 28
3582 4476 4478 28
3583 4476 4479 28
3584 4476 4480 28
3585 4481 4482 28
3586 4481 4483 28
3587 4481 4484 28
3588 4481 4485 28
3589 4486 4487 28
3590 4486 4488 28
3591 4486 4489 28
3592 4486 4490 28
3593 4491 4492 28
3594 4491 4493 28
3595 4491 4494 28
3596 4491 4495 28
3597 4496 4497 28
3598 4496 4498 28
3599 4496 4499 28
3600 4496 4500 28
3601 4501 4502 28
3602 4501 4503 28
3603 4501 4504 28
3604 4501 4505 28
3605 4506 4507 28
3606 4506 4508 28
3607 4506 4509 28
3608 4506 4510 28
3609 4511 4512 28
3610 4511 4513 28
3611 4511 4514 28
3612 4511 4515 28
3613 4516 4517 28
3614 4516 4518 28
3615 4516 4519 28
3616 4516 4520 28
3617 4521 4522 28
3618 4521 4523 28
3619 4521 4524 28
3620 4521 4525 28
3621 4526 4527 28
3622 4526 4528 28
3623 4526 4529 28
3624 4526 4530 28
3625 4531 4532 28
3626 4531 4533 28
3627 4531 4534 28
3628 4531 4535 28
3629 4536 4537 28
3630 4536 4538 28
3631 4536 4539 28
3632 4536 4540 28
3633 4541 4542 28
3634 4541 4543 28
3635 4541 4544 28
3636 4541 4545 28
3637 4546 4547 28
3638 4546 4548 28
3639 4546 4549 28
3640 4546 4550 28
3641 4551 4552 28
3642 4551 4553 28
3643 4551 4554 28
3644 4551 4555 28
3645 4556 4557 28
3646 4556 4558 28
3647 4556 4559 28
3648 4556 4560 28
3649 4561 4562 28
3650 4561 4563 28
3651 4561 4564 28
3652 4561 4565 28
3653 4566 4567 28
3654 4566 4568 28
3655 4566 4569 28
3656 4566 4570 28
3657 4571 4572 28
3658 4571 4573 28
3659 4571 4574 28
3660 4571 4575 28
3661 4576 4577 28
3662 4576 4578 28
3663 4576 4579 28
3664 4576 4580 28
3665 4581 4582 28
3666 4581 4583 28
3667 4581 4584 28
3668 4581 4585 28
3669 4586 4587 28
3670 4586 4588 28
3671 4586 4589 28
3672 4586 4590 28
3673 4591 4592 28
3674 4591 4593 28
3675 4591 4594 28
3676 4591 4595 28
3677 4596 4597 28
3678 4596 4598 28
3679 4596 4599 28
3680 4596 4600 28
3681 4601 4602 28
3682 4601 4603 28
3683 4601 4604 28
3684 4601 4605 28
3685 4606 4607 28
3686 4606 4608 28
3687 4606 4609 28
3688 4606 4610 28
3689 4611 4612 28
3690 4611 4613 28
3691 4611 4614 28
3692 4611 4615 28
3693 4616 4617 28
3694 4616 4618 28
3695 4616 4619 28
3696 4616 4620 28
3697 4621 4622 28
3698 4621 4623 28
3699 4621 4624 28
3700 4621 4625 28
3701 4626 4627 28
3702 4626 4628 28
3703 4626 4629 28
3704 4626 4630 28
3705 4631 4632 28
3706 4631 4633 28
3707 4631 4634 28
3708 4631 4635 28
3709 4636 4637 28
3710 4636 4638 28
3711 4636 4639 28
3712 4636 4640 28
3713 4641 4642 28
3714 4641 4643 28
3715 4641 4644 28
3716 4641 4645 28
3717 4646 4647 28
3718 4646 4648 28
3719 4646 4649 28
3720 4646 4650 28
3721 4651 4652 28
3722 4651 4653 28
3723 4651 4654 28
3724 4651 4655 28
3725 4656 4657 28
3726 4656 4658 28
3727 4656 4659 28
3728 4656 4660 28
3729 4661 4662 28
3730 4661 4663 28
3731 4661 4664 28
3732 4661 4665 28
3733 4666 4667 28
3734 4666 4668 28
3735 4666 4669 28
3736 4666 4670 28
3737 4671 4672 28
3738 4671 4673 28
3739 4671 4674 28
3740 4671 4675 28
3741 4676 4677 28
3742 4676 4678 28
3743 4676 4679 28
3744 4676 4680 28
3745 4681 4682 28
3746 4681 4683 28
3747 4681 4684 28
3748 4681 4685 28
3749 4686 4687 28
3750 4686 4688 28
3751 4686 4689 28
3752 4686 4690 28
3753 4691 4692 28
3754 4691 4693 28
3755 4691 4694 28
3756 4691 4695 28
3757 4696 4697 28
3758 4696 4698 28
3759 4696 4699 28
3760 4696 4700 28
3761 4701 4702 28
3762 4701 4703 28
3763 4701 4704 28
3764 4701 4705 28
3765 4706 4707 28
3766 4706 4708 28
3767 4706 4709 28
3768 4706 4710 28
3769 4711 4712 28
3770 4711 4713 28
3771 4711 4714 28
3772 4711 4715 28
3773 4716 4717 28
3774 4716 4718 28
3775 4716 4719 28
3776 4716 4720 28
3777 4721 4722 28
3778 4721 4723 28
3779 4721 4724 28
3780 4721 4725 28
3781 4726 4727 28
3782 4726 4728 28
3783 4726 4729 28
3784 4726 4730 28
3785 4731 4732 28
3786 4731 4733 28
3787 4731 4734 28
3788 4731 4735 28
3789 4736 4737 28
3790 4736 4738 28
3791 4736 4739 28
3792 4736 4740 28
3793 4741 4742 28
3794 4741 4743 28
3795 4741 4744 28
3796 4741 4745 28
3797 4746 4747 28
3798 4746 4748 28
3799 4746 4749 28
3800 4746 4750 28
3801 4751 4752 28
3802 4751 4753 28
3803 4751 4754 28
3804 4751 4755 28
3805 4756 4757 28
3806 4756 4758 28
3807 4756 4759 28
3808 4756 4760 28
3809 4761 4762 28
3810 4761 4763 28
3811 4761 4764 28
3812 4761 4765 28
3813 4766 4767 28
3814 4766 4768 28
3815 4766 4769 28
3816 4766 4770 28
3817 4771 4772 28
3818 4771 4773 28
3819 4771 4774 28
3820 4771 4775 28
3821 4776 4777 28
3822 4776 4778 28
3823 4776 4779 28
3824 4776 4780 28
3825 4781 4782 28
3826 4781 4783 28
3827 4781 4784 28
3828 4781 4785 28
3829 4786 4787 28
3830 4786 4788 28
3831 4786 4789 28
3832 4786 4790 28
3833 4791 4792 28
3834 4791 4793 28
3835 4791 4794 28
3836 4791 4795 28
3837 4796 4797 28
3838 4796 4798 28
3839 4796 4799 28
3840 4796 4800 28
3841 4801 4802 28
3842 4801 4803 28
3843 4801 4804 28
3844 4801 4805 28
3845 4806 4807 28
3846 4806 4808 28
3847 4806 4809 28
3848 4806 4810 28
3849 4811 4812 28
3850 4811 4813 28
3851 4811 4814 28
3852 4811 4815 28
3853 4816 4817 28
3854 4816 4818 28
3855 4816 4819 28
3856 4816 4820 28
3857 4821 4822 28
3858 4821 4823 28
3859 4821 4824 28
3860 4821 4825 28
3861 4826 4827 28
3862 4826 4828 28
3863 4826 4829 28
3864 4826 4830 28
3865 4831 4832 28
3866 4831 4833 28
3867 4831 4834 28
3868 4831 4835 28
3869 4836 4837 28
3870 4836 4838 28
3871 4836 4839 28
3872 4836 4840 28
3873 4841 4842 28
3874 4841 4843 28
3875 4841 4844 28
3876 4841 4845 28
3877 4846 4847 28
3878 4846 4848 28
3879 4846 4849 28
3880 4846 4850 28
3881 4851 4852 28
3882 4851 4853 28
3883 4851 4854 28
3884 4851 4855 28
3885 4856 4857 28
3886 4856 4858 28
3887 4856 4859 28
3888 4856 4860 28
3889 4861 4862 28
3890 4861 4863 28
3891 4861 4864 28
3892 4861 4865 28
3893 4866 4867 28
3894 4866 4868 28
3895 4866 4869 28
3896 4866 4870 28
3897 4871 4872 28
3898 4871 4873 28
3899 4871 4874 28
3900 4871 4875 28
3901 4876 4877 28
3902 4876 4878 28
3903 4876 4879 28
3904 4876 4880 28
3905 4881 4882 28
3906 4881 4883 28
3907 4881 4884 28
3908 4881 4885 28
3909 4886 4887 28
3910 4886 4888 28
3911 4886 4889 28
3912 4886 4890 28
3913 4891 4892 28
3914 4891 4893 28
3915 4891 4894 28
3916 4891 4895 28
3917 4896 4897 28
3918 4896 4898 28
3919 4896 4899 28
3920 4896 4900 28
3921 4901 4902 28
3922 4901 4903 28
3923 4901 4904 28
3924 4901 4905 28
3925 4906 4907 28
3926 4906 4908 28
3927 4906 4909 28
3928 4906 4910 28
3929 4911 4912 28
3930 4911 4913 28
3931 4911 4914 28
3932 4911 4915 28
3933 4916 4917 28
3934 4916 4918 28
3935 4916 4919 28
3936 4916 4920 28
3937 4921 4922 28
3938 4921 4923 28
3939 4921 4924 28
3940 4921 4925 28
3941 4926 4927 28
3942 4926 4928 28
3943 4926 4929 28
3944 4926 4930 28
3945 4931 4932 28
3946 4931 4933 28
3947 4931 4934 28
3948 4931 4935 28
3949 4936 4937 28
3950 4936 4938 28
3951 4936 4939 28
3952 4936 4940 28
3953 4941 4942 28
3954 4941 4943 28
3955 4941 4944 28
3956 4941 4945 28
3957 4946 4947 28
3958 4946 4948 28
3959 4946 4949 28
3960 4946 4950 28
3961 4951 4952 28
3962 4951 4953 28
3963 4951 4954 28
3964 4951 4955 28
3965 4956 4957 28
3966 4956 4958 28
3967 4956 4959 28
3968 4956 4960 28
3969 4961 4962 28
3970 4961 4963 28
3971 4961 4964 28
3972 4961 4965 28
3973 4966 4967 28
3974 4966 4968 28
3975 4966 4969 28
3976 4966 4970 28
3977 4971 4972 28
3978 4971 4973 28
3979 4971 4974 28
3980 4971 4975 28
3981 4976 4977 28
3982 4976 4978 28
3983 4976 4979 28
3984 4976 4980 28
3985 4981 4982 28
3986 4981 4983 28
3987 4981 4984 28
3988 4981 4985 28
3989 4986 4987 28
3990 4986 4988 28
3991 4986 4989 28
3992 4986 4990 28
3993 4991 4992 28
3994 4991 4993 28
3995 4991 4994 28
3996 4991 4995 28
3997 4996 4997 28
3998 4996 4998 28
3999 4996 4999 28
4000 4996 5000 28
4001 5001 5002 28
4002 5001 5003 28
4003 5001 5004 28
4004 5001 5005 28
4005 5006 5007 28
4006 5006 5008 28
4007 5006 5009 28
4008 5006 5010 28
4009 5011 5012 28
4010 5011 5013 28
4011 5011 5014 28
4012 5011 5015 28
4013 5016 5017 28
4014 5016 5018 28
4015 5016 5019 28
4016 5016 5020 28
4017 5021 5022 28
4018 5021 5023 28
4019 5021 5024 28
4020 5021 5025 28
4021 5026 5027 28
4022 5026 5028 28
4023 5026 5029 28
4024 5026 5030 28
4025 5031 5032 28
4026 5031 5033 28
4027 5031 5034 28
4028 5031 5035 28
4029 5036 5037 28
4030 5036 5038 28
4031 5036 5039 28
4032 5036 5040 28
4033 5041 5042 28
4034 5041 5043 28
4035 5041 5044 28
4036 5041 5045 28
4037 5046 5047 28
4038 5046 5048 28
4039 5046 5049 28
4040 5046 5050 28
4041 5051 5052 28
4042 5051 5053 28
4043 5051 5054 28
4044 5051 5055 28
4045 5056 5057 28
4046 5056 5058 28
4047 5056 5059 28
4048 5056 5060 28
4049 5061 5062 28
4050 5061 5063 28
4051 5061 5064 28
4052 5061 5065 28
4053 5066 5067 28
4054 5066 5068 28
4055 5066 5069 28
4056 5066 5070 28
4057 5071 5072 28
4058 5071 5073 28
4059 5071 5074 28
4060 5071 5075 28
4061 5076 5077 28
4062 5076 5078 28
4063 5076 5079 28
4064 5076 5080 28
4065 5081 5082 28
4066 5081 5083 28
4067 5081 5084 28
4068 5081 5085 28
4069 5086 5087 28
4070 5086 5088 28
4071 5086 5089 28
4072 5086 5090 28
4073 5091 5092 28
4074 5091 5093 28
4075 5091 5094 28
4076 5091 5095 28
4077 5096 5097 28
4078 5096 5098 28
4079 5096 5099 28
4080 5096 5100 28
4081 5101 5102 28
4082 5101 5103 28
4083 5101 5104 28
4084 5101 5105 28
4085 5106 5107 28
4086 5106 5108 28
4087 5106 5109 28
4088 5106 5110 28
4089 5111 5112 28
4090 5111 5113 28
4091 5111 5114 28
4092 5111 5115 28
4093 5116 5117 28
4094 5116 5118 28
4095 5116 5119 28
4096 5116 5120 28
4097 5121 5122 28
4098 5121 5123 28
4099 5121 5124 28
4100 5121 5125 28
4101 5126 5127 28
4102 5126 5128 28
4103 5126 5129 28
4104 5126 5130 28
4105 5131 5132 28
4106 5131 5133 28
4107 5131 5134 28
4108 5131 5135 28
4109 5136 5137 28
4110 5136 5138 28
4111 5136 5139 28
4112 5136 5140 28
4113 5141 5142 28
4114 5141 5143 28
4115 5141 5144 28
4116 5141 5145 28
4117 5146 5147 28
4118 5146 5148 28
4119 5146 5149 28
4120 5146 5150 28
4121 5151 5152 28
4122 5151 5153 28
4123 5151 5154 28
4124 5151 5155 28
4125 5156 5157 28
4126 5156 5158 28
4127 5156 5159 28
4128 5156 5160 28
4129 5161 5162 28
4130 5161 5163 28
4131 5161 5164 28
4132 5161 5165 28
4133 5166 5167 28
4134 5166 5168 28
4135 5166 5169 28
4136 5166 5170 28
4137 5171 5172 28
4138 5171 5173 28
4139 5171 5174 28
4140 5171 5175 28
4141 5176 5177 28
4142 5176 5178 28
4143 5176 5179 28
4144 5176 5180 28
4145 5181 5182 28
4146 5181 5183 28
4147 5181 5184 28
4148 5181 5185 28
4149 5186 5187 28
4150 5186 5188 28
4151 5186 5189 28
4152 5186 5190 28
4153 5191 5192 28
4154 5191 5193 28
4155 5191 5194 28
4156 5191 5195 28
4157 5196 5197 28
4158 5196 5198 28
4159 5196 5199 28
4160 5196 5200 28
4161 5201 5202 28
4162 5201 5203 28
4163 5201 5204 28
4164 5201 5205 28
4165 5206 5207 28
4166 5206 5208 28
4167 5206 5209 28
4168 5206 5210 28
4169 5211 5212 28
4170 5211 5213 28
4171 5211 5214 28
4172 5211 5215 28
4173 5216 5217 28
4174 5216 5218 28
4175 5216 5219 28
4176 5216 5220 28
4177 5221 5222 28
4178 5221 5223 28
4179 5221 5224 28
4180 5221 5225 28
4181 5226 5227 28
4182 5226 5228 28
4183 5226 5229 28
4184 5226 5230 28
4185 5231 5232 28
4186 5231 5233 28
4187 5231 5234 28
4188 5231 5235 28
4189 5236 5237 28
4190 5236 5238 28
4191 5236 5239 28
4192 5236 5240 28
4193 5241 5242 28
4194 5241 5243 28
4195 5241 5244 28
4196 5241 5245 28
4197 5246 5247 28
4198 5246 5248 28
4199 5246 5249 28
4200 5246 5250 28
4201 5251 5252 28
4202 5251 5253 28
4203 5251 5254 28
4204 5251 5255 28
4205 5256 5257 28
4206 5256 5258 28
4207 5256 5259 28
4208 5256 5260 28
4209 5261 5262 28
4210 5261 5263 28
4211 5261 5264 28
4212 5261 5265 28
4213 5266 5267 28
4214 5266 5268 28
4215 5266 5269 28
4216 5266 5270 28
4217 5271 5272 28
4218 5271 5273 28
4219 5271 5274 28
4220 5271 5275 28
4221 5276 5277 28
4222 5276 5278 28
4223 5276 5279 28
4224 5276 5280 28
4225 5281 5282 28
4226 5281 5283 28
4227 5281 5284 28
4228 5281 5285 28
4229 5286 5287 28
4230 5286 5288 28
4231 5286 5289 28
4232 5286 5290 28
4233 5291 5292 28
4234 5291 5293 28
4235 5291 5294 28
4236 5291 5295 28
4237 5296 5297 28
4238 5296 5298 28
4239 5296 5299 28
4240 5296 5300 28
4241 5301 5302 28
4242 5301 5303 28
4243 5301 5304 28
4244 5301 5305 28
4245 5306 5307 28
4246 5306 5308 28
4247 5306 5309 28
4248 5306 5310 28
4249 5311 5312 28
4250 5311 5313 28
4251 5311 5314 28
4252 5311 5315 28
4253 5316 5317 28
4254 5316 5318 28
4255 5316 5319 28
4256 5316 5320 28
4257 5321 5322 28
4258 5321 5323 28
4259 5321 5324 28
4260 5321 5325 28
4261 5326 5327 28
4262 5326 5328 28
4263 5326 5329 28
4264 5326 5330 28
4265 5331 5332 28
4266 5331 5333 28
4267 5331 5334 28
4268 5331 5335 28
4269 5336 5337 28
4270 5336 5338 28
4271 5336 5339 28
4272 5336 5340 28
4273 5341 5342 28
4274 5341 5343 28
4275 5341 5344 28
4276 5341 5345 28
4277 5346 5347 28
4278 5346 5348 28
4279 5346 5349 28
4280 5346 5350 28
4281 5351 5352 28
4282 5351 5353 28
4283 5351 5354 28
4284 5351 5355 28
4285 5356 5357 28
4286 5356 5358 28
4287 5356 5359 28
4288 5356 5360 28
4289 5361 5362 28
4290 5361 5363 28
4291 5361 5364 28
4292 5361 5365 28
4293 5366 5367 28
4294 5366 5368 28
4295 5366 5369 28
4296 5366 5370 28
4297 5371 5372 28
4298 5371 5373 28
4299 5371 5374 28
4300 5371 5375 28
4301 5376 5377 28
4302 5376 5378 28
4303 5376 5379 28
4304 5376 5380 28
4305 5381 5382 28
4306 5381 5383 28
4307 5381 5384 28
4308 5381 5385 28
4309 5386 5387 28
4310 5386 5388 28
4311 5386 5389 28
4312 5386 5390 28
4313 5391 5392 28
4314 5391 5393 28
4315 5391 5394 28
4316 5391 5395 28
4317 5396 5397 28
4318 5396 5398 28
4319 5396 5399 28
4320 5396 5400 28
4321 5401 5402 28
4322 5401 5403 28
4323 5401 5404 28
4324 5401 5405 28
4325 5406 5407 28
4326 5406 5408 28
4327 5406 5409 28
4328 5406 5410 28
4329 5411 5412 28
4330 5411 5413 28
4331 5411 5414 28
4332 5411 5415 28
4333 5416 5417 28
4334 5416 5418 28
4335 5416 5419 28
4336 5416 5420 28
4337 5421 5422 28
4338 5421 5423 28
4339 5421 5424 28
4340 5421 5425 28
4341 5426 5427 28
4342 5426 5428 28
4343 5426 5429 28
4344 5426 5430 28
4345 5431 5432 28
4346 5431 5433 28
4347 5431 5434 28
4348 5431 5435 28
4349 5436 5437 28
4350 5436 5438 28
4351 5436 5439 28
4352 5436 5440 28
4353 5441 5442 28
4354 5441 5443 28
4355 5441 5444 28
4356 5441 5445 28
4357 5446 5447 28
4358 5446 5448 28
4359 5446 5449 28
4360 5446 5450 28
4361 5451 5452 28
4362 5451 5453 28
4363 5451 5454 28
4364 5451 5455 28
4365 5456 5457 28
4366 5456 5458 28
4367 5456 5459 28
4368 5456 5460 28
4369 5461 5462 28
4370 5461 5463 28
4371 5461 5464 28
4372 5461 5465 28
4373 5466 5467 28
4374 5466 5468 28
4375 5466 5469 28
4376 5466 5470 28
4377 5471 5472 28
4378 5471 5473 28
4379 5471 5474 28
4380 5471 5475 28
4381 5476 5477 28
4382 5476 5478 28
4383 5476 5479 28
4384 5476 5480 28
4385 5481 5482 28
4386 5481 5483 28
4387 5481 5484 28
4388 5481 5485 28
4389 5486 5487 28
4390 5486 5488 28
4391 5486 5489 28
4392 5486 5490 28
4393 5491 5492 28
4394 5491 5493 28
4395 5491 5494 28
4396 5491 5495 28
4397 5496 5497 28
4398 5496 5498 28
4399 5496 5499 28
4400 5496 5500 28
4401 5501 5502 28
4402 5501 5503 28
4403 5501 5504 28
4404 5501 5505 28
4405 5506 5507 28
4406 5506 5508 28
4407 5506 5509 28
4408 5506 5510 28
4409 5511 5512 28
4410 5511 5513 28
4411 5511 5514 28
4412 5511 5515 28
4413 5516 5517 28
4414 5516 5518 28
4415 5516 5519 28
4416 5516 5520 28
4417 5521 5522 28
4418 5521 5523 28
4419 5521 5524 28
4420 5521 5525 28
4421 5526 5527 28
4422 5526 5528 28
4423 5526 5529 28
4424 5526 5530 28
4425 5531 5532 28
4426 5531 5533 28
4427 5531 5534 28
4428 5531 5535 28
4429 5536 5537 28
4430 5536 5538 28
4431 5536 5539 28
4432 5536 5540 28
4433 5541 5542 28
4434 5541 5543 28
4435 5541 5544 28
4436 5541 5545 28
4437 5546 5547 28
4438 5546 5548 28
4439 5546 5549 28
4440 5546 5550 28
4441 5551 5552 28
4442 5551 5553 28
4443 5551 5554 28
4444 5551 5555 28
4445 5556 5557 28
4446 5556 5558 28
4447 5556 5559 28
4448 5556 5560 28
4449 5561 5562 28
4450 5561 5563 28
4451 5561 5564 28
4452 5561 5565 28
4453 5566 5567 28
4454 5566 5568 28
4455 5566 5569 28
4456 5566 5570 28
4457 5571 5572 28
4458 5571 5573 28
4459 5571 5574 28
4460 5571 5575 28
4461 5576 5577 28
4462 5576 5578 28
4463 5576 5579 28
4464 5576 5580 28
4465 5581 5582 28
4466 5581 5583 28
4467 5581 5584 28
4468 5581 5585 28
4469 5586 5587 28
4470 5586 5588 28
4471 5586 5589 28
4472 5586 5590 28
4473 5591 5592 28
4474 5591 5593 28
4475 5591 5594 28
4476 5591 5595 28
4477 5596 5597 28
4478 5596 5598 28
4479 5596 5599 28
4480 5596 5600 28
4481 5601 5602 28
4482 5601 5603 28
4483 5601 5604 28
4484 5601 5605 28
4485 5606 5607 28
4486 5606 5608 28
4487 5606 5609 28
4488 5606 5610 28
4489 5611 5612 28
4490 5611 5613 28
4491 5611 5614 28
4492 5611 5615 28
4493 5616 5617 28
4494 5616 5618 28
4495 5616 5619 28
4496 5616 5620 28
4497 5621 5622 28
4498 5621 5623 28
4499 5621 5624 28
4500 5621 5625 28
4501 5626 5627 28
4502 5626 5628 28
4503 5626 5629 28
4504 5626 5630 28
4505 5631 5632 28
4506 5631 5633 28
4507 5631 5634 28
4508 5631 5635 28
4509 5636 5637 28
4510 5636 5638 28
4511 5636 5639 28
4512 5636 5640 28
4513 5641 5642 28
4514 5641 5643 28
4515 5641 5644 28
4516 5641 5645 28
4517 5646 5647 28
4518 5646 5648 28
4519 5646 5649 28
4520 5646 5650 28
4521 5651 5652 28
4522 5651 5653 28
4523 5651 5654 28
4524 5651 5655 28
4525 5656 5657 28
4526 5656 5658 28
4527 5656 5659 28
4528 5656 5660 28
4529 5661 5662 28
4530 5661 5663 28
4531 5661 5664 28
4532 5661 5665 28
4533 5666 5667 28
4534 5666 5668 28
4535 5666 5669 28
4536 5666 5670 28
4537 5671 5672 28
4538 5671 5673 28
4539 5671 5674 28
4540 5671 5675 28
4541 5676 5677 28
4542 5676 5678 28
4543 5676 5679 28
4544 5676 5680 28
4545 5681 5682 28
4546 5681 5683 28
4547 5681 5684 28
4548 5681 5685 28
4549 5686 5687 28
4550 5686 5688 28
4551 5686 5689 28
4552 5686 5690 28
4553 5691 5692 28
4554 5691 5693 28
4555 5691 5694 28
4556 5691 5695 28
4557 5696 5697 28
4558 5696 5698 28
4559 5696 5699 28
4560 5696 5700 28
4561 5701 5702 28
4562 5701 5703 28
4563 5701 5704 28
4564 5701 5705 28
4565 5706 5707 28
4566 5706 5708 28
4567 5706 5709 28
4568 5706 5710 28
4569 5711 5712 28
4570 5711 5713 28
4571 5711 5714 28
4572 5711 5715 28
4573 5716 5717 28
4574 5716 5718 28
4575 5716 5719 28
4576 5716 5720 28
4577 5721 5722 28
4578 5721 5723 28
4579 5721 5724 28
4580 5721 5725 28
4581 5726 5727 28
4582 5726 5728 28
4583 5726 5729 28
4584 5726 5730 28
4585 5731 5732 28
4586 5731 5733 28
4587 5731 5734 28
4588 5731 5735 28
4589 5736 5737 28
4590 5736 5738 28
4591 5736 5739 28
4592 5736 5740 28
4593 5741 5742 28
4594 5741 5743 28
4595 5741 5744 28
4596 5741 5745 28
4597 5746 5747 28
4598 5746 5748 28
4599 5746 5749 28
4600 5746 5750 28
4601 5751 5752 28
4602 5751 5753 28
4603 5751 5754 28
4604 5751 5755 28
4605 5756 5757 28
4606 5756 5758 28
4607 5756 5759 28
4608 5756 5760 28
4609 5761 5762 28
4610 5761 5763 28
4611 5761 5764 28
4612 5761 5765 28
4613 5766 5767 28
4614 5766 5768 28
4615 5766 5769 28
4616 5766 5770 28
4617 5771 5772 28
4618 5771 5773 28
4619 5771 5774 28
4620 5771 5775 28
4621 5776 5777 28
4622 5776 5778 28
4623 5776 5779 28
4624 5776 5780 28
4625 5781 5782 28
4626 5781 5783 28
4627 5781 5784 28
4628 5781 5785 28
4629 5786 5787 28
4630 5786 5788 28
4631 5786 5789 28
4632 5786 5790 28
4633 5791 5792 28
4634 5791 5793 28
4635 5791 5794 28
4636 5791 5795 28
4637 5796 5797 28
4638 5796 5798 28
4639 5796 5799 28
4640 5796 5800 28
4641 5801 5802 28
4642 5801 5803 28
4643 5801 5804 28
4644 5801 5805 28
4645 5806 5807 28
4646 5806 5808 28
4647 5806 5809 28
4648 5806 5810 28
4649 5811 5812 28
4650 5811 5813 28
4651 5811 5814 28
4652 5811 5815 28
4653 5816 5817 28
4654 5816 5818 28
4655 5816 5819 28
4656 5816 5820 28
4657 5821 5822 28
4658 5821 5823 28
4659 5821 5824 28
4660 5821 5825 28
4661 5826 5827 28
4662 5826 5828 28
4663 5826 5829 28
4664 5826 5830 28
4665 5831 5832 28
4666 5831 5833 28
4667 5831 5834 28
4668 5831 5835 28
4669 5836 5837 28
4670 5836 5838 28
4671 5836 5839 28
4672 5836 5840 28
4673 5841 5842 28
4674 5841 5843 28
4675 5841 5844 28
4676 5841 5845 28
4677 5846 5847 28
4678 5846 5848 28
4679 5846 5849 28
4680 5846 5850 28
4681 5851 5852 28
4682 5851 5853 28
4683 5851 5854 28
4684 5851 5855 28
4685 5856 5857 28
4686 5856 5858 28
4687 5856 5859 28
4688 5856 5860 28
4689 5861 5862 28
4690 5861 5863 28
4691 5861 5864 28
4692 5861 5865 28
4693 5866 5867 28
4694 5866 5868 28
4695 5866 5869 28
4696 5866 5870 28
4697 5871 5872 28
4698 5871 5873 28
4699 5871 5874 28
4700 5871 5875 28
4701 5876 5877 28
4702 5876 5878 28
4703 5876 5879 28
4704 5876 5880 28
4705 5881 5882 28
4706 5881 5883 28
4707 5881 5884 28
4708 5881 5885 28
4709 5886 5887 28
4710 5886 5888 28
4711 5886 5889 28
4712 5886 5890 28
4713 5891 5892 28
4714 5891 5893 28
4715 5891 5894 28
4716 5891 5895 28
4717 5896 5897 28
4718 5896 5898 28
4719 5896 5899 28
4720 5896 5900 28
4721 5901 5902 28
4722 5901 5903 28
4723 5901 5904 28
4724 5901 5905 28
4725 5906 5907 28
4726 5906 5908 28
4727 5906 5909 28
4728 5906 5910 28
4729 5911 5912 28
4730 5911 5913 28
4731 5911 5914 28
4732 5911 5915 28
4733 5916 5917 28
4734 5916 5918 28
4735 5916 5919 28
4736 5916 5920 28
4737 5921 5922 28
4738 5921 5923 28
4739 5921 5924 28
4740 5921 5925 28
4741 5926 5927 28
4742 5926 5928 28
4743 5926 5929 28
4744 5926 5930 28
4745 5931 5932 28
4746 5931 5933 28
4747 5931 5934 28
4748 5931 5935 28
4749 5936 5937 28
4750 5936 5938 28
4751 5936 5939 28
4752 5936 5940 28
4753 5941 5942 28
4754 5941 5943 28
4755 5941 5944 28
4756 5941 5945 28
4757 5946 5947 28
4758 5946 5948 28
4759 5946 5949 28
4760 5946 5950 28
4761 5951 5952 28
4762 5951 5953 28
4763 5951 5954 28
4764 5951 5955 28
4765 5956 5957 28
4766 5956 5958 28
4767 5956 5959 28
4768 5956 5960 28
4769 5961 5962 28
4770 5961 5963 28
4771 5961 5964 28
4772 5961 5965 28
4773 5966 5967 28
4774 5966 5968 28
4775 5966 5969 28
4776 5966 5970 28
4777 5971 5972 28
4778 5971 5973 28
4779 5971 5974 28
4780 5971 5975 28
4781 5976 5977 28
4782 5976 5978 28
4783 5976 5979 28
4784 5976 5980 28
4785 5981 5982 28
4786 5981 5983 28
4787 5981 5984 28
4788 5981 5985 28
4789 5986 5987 28
4790 5986 5988 28
4791 5986 5989 28
4792 5986 5990 28
4793 5991 5992 28
4794 5991 5993 28
4795 5991 5994 28
4796 5991 5995 28
4797 5996 5997 28
4798 5996 5998 28
4799 5996 5999 28
4800 5996 6000 28
4801 6001 6002 28
4802 6001 6003 28
4803 6001 6004 28
4804 6001 6005 28
4805 6006 6007 28
4806 6006 6008 28
4807 6006 6009 28
4808 6006 6010 28
4809 6011 6012 28
4810 6011 6013 28
4811 6011 6014 28
4812 6011 6015 28
4813 6016 6017 28
4814 6016 6018 28
4815 6016 6019 28
4816 6016 6020 28
4817 6021 6022 28
4818 6021 6023 28
4819 6021 6024 28
4820 6021 6025 28
4821 6026 6027 28
4822 6026 6028 28
4823 6026 6029 28
4824 6026 6030 28
4825 6031 6032 28
4826 6031 6033 28
4827 6031 6034 28
4828 6031 6035 28
4829 6036 6037 28
4830 6036 6038 28
4831 6036 6039 28
4832 6036 6040 28
4833 6041 6042 28
4834 6041 6043 28
4835 6041 6044 28
4836 6041 6045 28
4837 6046 6047 28
4838 6046 6048 28
4839 6046 6049 28
4840 6046 6050 28
4841 6051 6052 28
4842 6051 6053 28
4843 6051 6054 28
4844 6051 6055 28
4845 6056 6057 28
4846 6056 6058 28
4847 6056 6059 28
4848 6056 6060 28
4849 6061 6062 28
4850 6061 6063 28
4851 6061 6064 28
4852 6061 6065 28
4853 6066 6067 28
4854 6066 6068 28
4855 6066 6069 28
4856 6066 6070 28
4857 6071 6072 28
4858 6071 6073 28
4859 6071 6074 28
4860 6071 6075 28
4861 6076 6077 28
4862 6076 6078 28
4863 6076 6079 28
4864 6076 6080 28
4865 6081 6082 28
4866 6081 6083 28
4867 6081 6084 28
4868 6081 6085 28
4869 6086 6087 28
4870 6086 6088 28
4871 6086 6089 28
4872 6086 6090 28
4873 6091 6092 28
4874 6091 6093 28
4875 6091 6094 28
4876 6091 6095 28
4877 6096 6097 28
4878 6096 6098 28
4879 6096 6099 28
4880 6096 6100 28
4881 6101 6102 28
4882 6101 6103 28
4883 6101 6104 28
4884 6101 6105 28
4885 6106 6107 28
4886 6106 6108 28
4887 6106 6109 28
4888 6106 6110 28
4889 6111 6112 28
4890 6111 6113 28
4891 6111 6114 28
4892 6111 6115 28
4893 6116 6117 28
4894 6116 6118 28
4895 6116 6119 28
4896 6116 6120 28
4897 6121 6122 28
4898 6121 6123 28
4899 6121 6124 28
4900 6121 6125 28
4901 6126 6127 28
4902 6126 6128 28
4903 6126 6129 28
4904 6126 6130 28
4905 6131 6132 28
4906 6131 6133 28
4907 6131 6134 28
4908 6131 6135 28
4909 6136 6137 28
4910 6136 6138 28
4911 6136 6139 28
4912 6136 6140 28
4913 6141 6142 28
4914 6141 6143 28
4915 6141 6144 28
4916 6141 6145 28
4917 6146 6147 28
4918 6146 6148 28
4919 6146 6149 28
4920 6146 6150 28
4921 6151 6152 28
4922 6151 6153 28
4923 6151 6154 28
4924 6151 6155 28
4925 6156 6157 28
4926 6156 6158 28
4927 6156 6159 28
4928 6156 6160 28
4929 6161 6162 28
4930 6161 6163 28
4931 6161 6164 28
4932 6161 6165 28
4933 6166 6167 28
4934 6166 6168 28
4935 6166 6169 28
4936 6166 6170 28
4937 6171 6172 28
4938 6171 6173 28
4939 6171 6174 28
4940 6171 6175 28
4941 6176 6177 28
4942 6176 6178 28
4943 6176 6179 28
4944 6176 6180 28
4945 6181 6182 28
4946 6181 6183 28
4947 6181 6184 28
4948 6181 6185 28
4949 6186 6187 28
4950 6186 6188 28
4951 6186 6189 28
4952 6186 6190 28
4953 6191 6192 28
4954 6191 6193 28
4955 6191 6194 28
4956 6191 6195 28
4957 6196 6197 28
4958 6196 6198 28
4959 6196 6199 28
4960 6196 6200 28
4961 6201 6202 28
4962 6201 6203 28
4963 6201 6204 28
4964 6201 6205 28
4965 6206 6207 28
4966 6206 6208 28
4967 6206 6209 28
4968 6206 6210 28
4969 6211 6212 28
4970 6211 6213 28
4971 6211 6214 28
4972 6211 6215 28
4973 6216 6217 28
4974 6216 6218 28
4975 6216 6219 28
4976 6216 6220 28
4977 6221 6222 28
4978 6221 6223 28
4979 6221 6224 28
4980 6221 6225 28
4981 6226 6227 28
4982 6226 6228 28
4983 6226 6229 28
4984 6226 6230 28
4985 6231 6232 28
4986 6231 6233 28
4987 6231 6234 28
4988 6231 6235 28
4989 6236 6237 28
4990 6236 6238 28
4991 6236 6239 28
4992 6236 6240 28
4993 6241 6242 28
4994 6241 6243 28
4995 6241 6244 28
4996 6241 6245 28
4997 6246 6247 28
4998 6246 6248 28
4999 6246 6249 28
5000 6246 6250 28
5001 6251 6252 28
5002 6251 6253 28
5003 6251 6254 28
5004 6251 6255 28
5005 6256 6257 28
5006 6256 6258 28
5007 6256 6259 28
5008 6256 6260 28
5009 6261 6262 28
5010 6261 6263 28
5011 6261 6264 28
5012 6261 6265 28
5013 6266 6267 28
5014 6266 6268 28
5015 6266 6269 28
5016 6266 6270 28
5017 6271 6272 28
5018 6271 6273 28
5019 6271 6274 28
5020 6271 6275 28
5021 6276 6277 28
5022 6276 6278 28
5023 6276 6279 28
5024 6276 6280 28
5025 6281 6282 28
5026 6281 6283 28
5027 6281 6284 28
5028 6281 6285 28
5029 6286 6287 28
5030 6286 6288 28
5031 6286 6289 28
5032 6286 6290 28
5033 6291 6292 28
5034 6291 6293 28
5035 6291 6294 28
5036 6291 6295 28
5037 6296 6297 28
5038 6296 6298 28
5039 6296 6299 28
5040 6296 6300 28
5041 6301 6302 28
5042 6301 6303 28
5043 6301 6304 28
5044 6301 6305 28
5045 6306 6307 28
5046 6306 6308 28
5047 6306 6309 28
5048 6306 6310 28
5049 6311 6312 28
5050 6311 6313 28
5051 6311 6314 28
5052 6311 6315 28
5053 6316 6317 28
5054 6316 6318 28
5055 6316 6319 28
5056 6316 6320 28
5057 6321 6322 28
5058 6321 6323 28
5059 6321 6324 28
5060 6321 6325 28
5061 6326 6327 28
5062 6326 6328 28
5063 6326 6329 28
5064 6326 6330 28
5065 6331 6332 28
5066 6331 6333 28
5067 6331 6334 28
5068 6331 6335 28
5069 6336 6337 28
5070 6336 6338 28
5071 6336 6339 28
5072 6336 6340 28
5073 6341 6342 28
5074 6341 6343 28
5075 6341 6344 28
5076 6341 6345 28
5077 6346 6347 28
5078 6346 6348 28
5079 6346 6349 28
5080 6346 6350 28
5081 6351 6352 28
5082 6351 6353 28
5083 6351 6354 28
5084 6351 6355 28
5085 6356 6357 28
5086 6356 6358 28
5087 6356 6359 28
5088 6356 6360 28
5089 6361 6362 28
5090 6361 6363 28
5091 6361 6364 28
5092 6361 6365 28
5093 6366 6367 28
5094 6366 6368 28
5095 6366 6369 28
5096 6366 6370 28
5097 6371 6372 28
5098 6371 6373 28
5099 6371 6374 28
5100 6371 6375 28
5101 6376 6377 28
5102 6376 6378 28
5103 6376 6379 28
5104 6376 6380 28
5105 6381 6382 28
5106 6381 6383 28
5107 6381 6384 28
5108 6381 6385 28
5109 6386 6387 28
5110 6386 6388 28
5111 6386 6389 28
5112 6386 6390 28
5113 6391 6392 28
5114 6391 6393 28
5115 6391 6394 28
5116 6391 6395 28
5117 6396 6397 28
5118 6396 6398 28
5119 6396 6399 28
5120 6396 6400 28
5121 6401 6402 28
5122 6401 6403 28
5123 6401 6404 28
5124 6401 6405 28
5125 6406 6407 28
5126 6406 6408 28
5127 6406 6409 28
5128 6406 6410 28
5129 6411 6412 28
5130 6411 6413 28
5131 6411 6414 28
5132 6411 6415 28
5133 6416 6417 28
5134 6416 6418 28
5135 6416 6419 28
5136 6416 6420 28
5137 6421 6422 28
5138 6421 6423 28
5139 6421 6424 28
5140 6421 6425 28
5141 6426 6427 28
5142 6426 6428 28
5143 6426 6429 28
5144 6426 6430 28
5145 6431 6432 28
5146 6431 6433 28
5147 6431 6434 28
5148 6431 6435 28
5149 6436 6437 28
5150 6436 6438 28
5151 6436 6439 28
5152 6436 6440 28
5153 6441 6442 28
5154 6441 6443 28
5155 6441 6444 28
5156 6441 6445 28
5157 6446 6447 28
5158 6446 6448 28
5159 6446 6449 28
5160 6446 6450 28
5161 6451 6452 28
5162 6451 6453 28
5163 6451 6454 28
5164 6451 6455 28
5165 6456 6457 28
5166 6456 6458 28
5167 6456 6459 28
5168 6456 6460 28
5169 6461 6462 28
5170 6461 6463 28
5171 6461 6464 28
5172 6461 6465 28
5173 6466 6467 28
5174 6466 6468 28
5175 6466 6469 28
5176 6466 6470 28
5177 6471 6472 28
5178 6471 6473 28
5179 6471 6474 28
5180 6471 6475 28
5181 6476 6477 28
5182 6476 6478 28
5183 6476 6479 28
5184 6476 6480 28
5185 6481 6482 28
5186 6481 6483 28
5187 6481 6484 28
5188 6481 6485 28
5189 6486 6487 28
5190 6486 6488 28
5191 6486 6489 28
5192 6486 6490 28
5193 6491 6492 28
5194 6491 6493 28
5195 6491 6494 28
5196 6491 6495 28
5197 6496 6497 28
5198 6496 6498 28
5199 6496 6499 28
5200 6496 6500 28
5201 6501 6502 28
5202 6501 6503 28
5203 6501 6504 28
5204 6501 6505 28
5205 6506 6507 28
5206 6506 6508 28
5207 6506 6509 28
5208 6506 6510 28
5209 6511 6512 28
5210 6511 6513 28
5211 6511 6514 28
5212 6511 6515 28
5213 6516 6517 28
5214 6516 6518 28
5215 6516 6519 28
5216 6516 6520 28
5217 6521 6522 28
5218 6521 6523 28
5219 6521 6524 28
5220 6521 6525 28
5221 6526 6527 28
5222 6526 6528 28
5223 6526 6529 28
5224 6526 6530 28
5225 6531 6532 28
5226 6531 6533 28
5227 6531 6534 28
5228 6531 6535 28
5229 6536 6537 28
5230 6536 6538 28
5231 6536 6539 28
5232 6536 6540 28
5233 6541 6542 28
5234 6541 6543 28
5235 6541 6544 28
5236 6541 6545 28
5237 6546 6547 28
5238 6546 6548 28
5239 6546 6549 28
5240 6546 6550 28
5241 6551 6552 28
5242 6551 6553 28
5243 6551 6554 28
5244 6551 6555 28
5245 6556 6557 28
5246 6556 6558 28
5247 6556 6559 28
5248 6556 6560 28
5249 6561 6562 28
5250 6561 6563 28
5251 6561 6564 28
5252 6561 6565 28
5253 6566 6567 28
5254 6566 6568 28
5255 6566 6569 28
5256 6566 6570 28
5257 6571 6572 28
5258 6571 6573 28
5259 6571 6574 28
5260 6571 6575 28
5261 6576 6577 28
5262 6576 6578 28
5263 6576 6579 28
5264 6576 6580 28
5265 6581 6582 28
5266 6581 6583 28
5267 6581 6584 28
5268 6581 6585 28
5269 6586 6587 28
5270 6586 6588 28
5271 6586 6589 28
5272 6586 6590 28
5273 6591 6592 28
5274 6591 6593 28
5275 6591 6594 28
5276 6591 6595 28
5277 6596 6597 28
5278 6596 6598 28
5279 6596 6599 28
5280 6596 6600 28
5281 6601 6602 28
5282 6601 6603 28
5283 6601 6604 28
5284 6601 6605 28
5285 6606 6607 28
5286 6606 6608 28
5287 6606 6609 28
5288 6606 6610 28
5289 6611 6612 28
5290 6611 6613 28
5291 6611 6614 28
5292 6611 6615 28
5293 6616 6617 28
5294 6616 6618 28
5295 6616 6619 28
5296 6616 6620 28
5297 6621 6622 28
5298 6621 6623 28
5299 6621 6624 28
5300 6621 6625 28
5301 6626 6627 28
5302 6626 6628 28
5303 6626 6629 28
5304 6626 6630 28
5305 6631 6632 28
5306 6631 6633 28
5307 6631 6634 28
5308 6631 6635 28
5309 6636 6637 28
5310 6636 6638 28
5311 6636 6639 28
5312 6636 6640 28
5313 6641 6642 28
5314 6641 6643 28
5315 6641 6644 28
5316 6641 6645 28
5317 6646 6647 28
5318 6646 6648 28
5319 6646 6649 28
5320 6646 6650 28
5321 6651 6652 28
5322 6651 6653 28
5323 6651 6654 28
5324 6651 6655 28
5325 6656 6657 28
5326 6656 6658 28
5327 6656 6659 28
5328 6656 6660 28
5329 6661 6662 28
5330 6661 6663 28
5331 6661 6664 28
5332 6661 6665 28
5333 6666 6667 28
5334 6666 6668 28
5335 6666 6669 28
5336 6666 6670 28
5337 6671 6672 28
5338 6671 6673 28
5339 6671 6674 28
5340 6671 6675 28
5341 6676 6677 28
5342 6676 6678 28
5343 6676 6679 28
5344 6676 6680 28
5345 6681 6682 28
5346 6681 6683 28
5347 6681 6684 28
5348 6681 6685 28
5349 6686 6687 28
5350 6686 6688 28
5351 6686 6689 28
5352 6686 6690 28
5353 6691 6692 28
5354 6691 6693 28
5355 6691 6694 28
5356 6691 6695 28
5357 6696 6697 28
5358 6696 6698 28
5359 6696 6699 28
5360 6696 6700 28
5361 6701 6702 28
5362 6701 6703 28
5363 6701 6704 28
5364 6701 6705 28
5365 6706 6707 28
5366 6706 6708 28
5367 6706 6709 28
5368 6706 6710 28
5369 6711 6712 28
5370 6711 6713 28
5371 6711 6714 28
5372 6711 6715 28
5373 6716 6717 28
5374 6716 6718 28
5375 6716 6719 28
5376 6716 6720 28
5377 6721 6722 28
5378 6721 6723 28
5379 6721 6724 28
5380 6721 6725 28
5381 6726 6727 28
5382 6726 6728 28
5383 6726 6729 28
5384 6726 6730 28
5385 6731 6732 28
5386 6731 6733 28
5387 6731 6734 28
5388 6731 6735 28
5389 6736 6737 28
5390 6736 6738 28
5391 6736 6739 28
5392 6736 6740 28
5393 6741 6742 28
5394 6741 6743 28
5395 6741 6744 28
5396 6741 6745 28
5397 6746 6747 28
5398 6746 6748 28
5399 6746 6749 28
5400 6746 6750 28
5401 6751 6752 28
5402 6751 6753 28
5403 6751 6754 28
5404 6751 6755 28
5405 6756 6757 28
5406 6756 6758 28
5407 6756 6759 28
5408 6756 6760 28
5409 6761 6762 28
5410 6761 6763 28
5411 6761 6764 28
5412 6761 6765 28
5413 6766 6767 28
5414 6766 6768 28
5415 6766 6769 28
5416 6766 6770 28
5417 6771 6772 28
5418 6771 6773 28
5419 6771 6774 28
5420 6771 6775 28
5421 6776 6777 28
5422 6776 6778 28
5423 6776 6779 28
5424 6776 6780 28
5425 6781 6782 28
5426 6781 6783 28
5427 6781 6784 28
5428 6781 6785 28
5429 6786 6787 28
5430 6786 6788 28
5431 6786 6789 28
5432 6786 6790 28
5433 6791 6792 28
5434 6791 6793 28
5435 6791 6794 28
5436 6791 6795 28
5437 6796 6797 28
5438 6796 6798 28
5439 6796 6799 28
5440 6796 6800 28
5441 6801 6802 28
5442 6801 6803 28
5443 6801 6804 28
5444 6801 6805 28
5445 6806 6807 28
5446 6806 6808 28
5447 6806 6809 28
5448 6806 6810 28
5449 6811 6812 28
5450 6811 6813 28
5451 6811 6814 28
5452 6811 6815 28
5453 6816 6817 28
5454 6816 6818 28
5455 6816 6819 28
5456 6816 6820 28
5457 6821 6822 28
5458 6821 6823 28
5459 6821 6824 28
5460 6821 6825 28
5461 6826 6827 28
5462 6826 6828 28
5463 6826 6829 28
5464 6826 6830 28
5465 6831 6832 28
5466 6831 6833 28
5467 6831 6834 28
5468 6831 6835 28
5469 6836 6837 28
5470 6836 6838 28
5471 6836 6839 28
5472 6836 6840 28
5473 6841 6842 28
5474 6841 6843 28
5475 6841 6844 28
5476 6841 6845 28
5477 6846 6847 28
5478 6846 6848 28
5479 6846 6849 28
5480 6846 6850 28
5481 6851 6852 28
5482 6851 6853 28
5483 6851 6854 28
5484 6851 6855 28
5485 6856 6857 28
5486 6856 6858 28
5487 6856 6859 28
5488 6856 6860 28
5489 6861 6862 28
5490 6861 6863 28
5491 6861 6864 28
5492 6861 6865 28
5493 6866 6867 28
5494 6866 6868 28
5495 6866 6869 28
5496 6866 6870 28
5497 6871 6872 28
5498 6871 6873 28
5499 6871 6874 28
5500 6871 6875 28
5501 6876 6877 28
5502 6876 6878 28
5503 6876 6879 28
5504 6876 6880 28
5505 6881 6882 28
5506 6881 6883 28
5507 6881 6884 28
5508 6881 6885 28
5509 6886 6887 28
5510 6886 6888 28
5511 6886 6889 28
5512 6886 6890 28
5513 6891 6892 28
5514 6891 6893 28
5515 6891 6894 28
5516 6891 6895 28
5517 6896 6897 28
5518 6896 6898 28
5519 6896 6899 28
5520 6896 6900 28
5521 6901 6902 28
5522 6901 6903 28
5523 6901 6904 28
5524 6901 6905 28
5525 6906 6907 28
5526 6906 6908 28
5527 6906 6909 28
5528 6906 6910 28
5529 6911 6912 28
5530 6911 6913 28
5531 6911 6914 28
5532 6911 6915 28
5533 6916 6917 28
5534 6916 6918 28
5535 6916 6919 28
5536 6916 6920 28
5537 6921 6922 28
5538 6921 6923 28
5539 6921 6924 28
5540 6921 6925 28
5541 6926 6927 28
5542 6926 6928 28
5543 6926 6929 28
5544 6926 6930 28
5545 6931 6932 28
5546 6931 6933 28
5547 6931 6934 28
5548 6931 6935 28
5549 6936 6937 28
5550 6936 6938 28
5551 6936 6939 28
5552 6936 6940 28
5553 6941 6942 28
5554 6941 6943 28
5555 6941 6944 28
5556 6941 6945 28
5557 6946 6947 28
5558 6946 6948 28
5559 6946 6949 28
5560 6946 6950 28
5561 6951 6952 28
5562 6951 6953 28
5563 6951 6954 28
5564 6951 6955 28
5565 6956 6957 28
5566 6956 6958 28
5567 6956 6959 28
5568 6956 6960 28
5569 6961 6962 28
5570 6961 6963 28
5571 6961 6964 28
5572 6961 6965 28
5573 6966 6967 28
5574 6966 6968 28
5575 6966 6969 28
5576 6966 6970 28
5577 6971 6972 28
5578 6971 6973 28
5579 6971 6974 28
5580 6971 6975 28
5581 6976 6977 28
5582 6976 6978 28
5583 6976 6979 28
5584 6976 6980 28
5585 6981 6982 28
5586 6981 6983 28
5587 6981 6984 28
5588 6981 6985 28
5589 6986 6987 28
5590 6986 6988 28
5591 6986 6989 28
5592 6986 6990 28
5593 6991 6992 28
5594 6991 6993 28
5595 6991 6994 28
5596 6991 6995 28
5597 6996 6997 28
5598 6996 6998 28
5599 6996 6999 28
5600 6996 7000 28
5601 7001 7002 28
5602 7001 7003 28
5603 7001 7004 28
5604 7001 7005 28
5605 7006 7007 28
5606 7006 7008 28
5607 7006 7009 28
5608 7006 7010 28
5609 7011 7012 28
5610 7011 7013 28
5611 7011 7014 28
5612 7011 7015 28
5613 7016 7017 28
5614 7016 7018 28
5615 7016 7019 28
5616 7016 7020 28
5617 7021 7022 28
5618 7021 7023 28
5619 7021 7024 28
5620 7021 7025 28
5621 7026 7027 28
5622 7026 7028 28
5623 7026 7029 28
5624 7026 7030 28
5625 7031 7032 28
5626 7031 7033 28
5627 7031 7034 28
5628 7031 7035 28
5629 7036 7037 28
5630 7036 7038 28
5631 7036 7039 28
5632 7036 7040 28
5633 7041 7042 28
5634 7041 7043 28
5635 7041 7044 28
5636 7041 7045 28
5637 7046 7047 28
5638 7046 7048 28
5639 7046 7049 28
5640 7046 7050 28
5641 7051 7052 28
5642 7051 7053 28
5643 7051 7054 28
5644 7051 7055 28
5645 7056 7057 28
5646 7056 7058 28
5647 7056 7059 28
5648 7056 7060 28
5649 7061 7062 28
5650 7061 7063 28
5651 7061 7064 28
5652 7061 7065 28
5653 7066 7067 28
5654 7066 7068 28
5655 7066 7069 28
5656 7066 7070 28
5657 7071 7072 28
5658 7071 7073 28
5659 7071 7074 28
5660 7071 7075 28
5661 7076 7077 28
5662 7076 7078 28
5663 7076 7079 28
5664 7076 7080 28
5665 7081 7082 28
5666 7081 7083 28
5667 7081 7084 28
5668 7081 7085 28
5669 7086 7087 28
5670 7086 7088 28
5671 7086 7089 28
5672 7086 7090 28
5673 7091 7092 28
5674 7091 7093 28
5675 7091 7094 28
5676 7091 7095 28
5677 7096 7097 28
5678 7096 7098 28
5679 7096 7099 28
5680 7096 7100 28
5681 7101 7102 28
5682 7101 7103 28
5683 7101 7104 28
5684 7101 7105 28
5685 7106 7107 28
5686 7106 7108 28
5687 7106 7109 28
5688 7106 7110 28
5689 7111 7112 28
5690 7111 7113 28
5691 7111 7114 28
5692 7111 7115 28
5693 7116 7117 28
5694 7116 7118 28
5695 7116 7119 28
5696 7116 7120 28
5697 7121 7122 28
5698 7121 7123 28
5699 7121 7124 28
5700 7121 7125 28
5701 7126 7127 28
5702 7126 7128 28
5703 7126 7129 28
5704 7126 7130 28
5705 7131 7132 28
5706 7131 7133 28
5707 7131 7134 28
5708 7131 7135 28
5709 7136 7137 28
5710 7136 7138 28
5711 7136 7139 28
5712 7136 7140 28
5713 7141 7142 28
5714 7141 7143 28
5715 7141 7144 28
5716 7141 7145 28
5717 7146 7147 28
5718 7146 7148 28
5719 7146 7149 28
5720 7146 7150 28
5721 7151 7152 28
5722 7151 7153 28
5723 7151 7154 28
5724 7151 7155 28
5725 7156 7157 28
5726 7156 7158 28
5727 7156 7159 28
5728 7156 7160 28
5729 7161 7162 28
5730 7161 7163 28
5731 7161 7164 28
5732 7161 7165 28
5733 7166 7167 28
5734 7166 7168 28
5735 7166 7169 28
5736 7166 7170 28
5737 7171 7172 28
5738 7171 7173 28
5739 7171 7174 28
5740 7171 7175 28
5741 7176 7177 28
5742 7176 7178 28
5743 7176 7179 28
5744 7176 7180 28
5745 7181 7182 28
5746 7181 7183 28
5747 7181 7184 28
5748 7181 7185 28
5749 7186 7187 28
5750 7186 7188 28
5751 7186 7189 28
5752 7186 7190 28
5753 7191 7192 28
5754 7191 7193 28
5755 7191 7194 28
5756 7191 7195 28
5757 7196 7197 28
5758 7196 7198 28
5759 7196 7199 28
5760 7196 7200 28
5761 7201 7202 28
5762 7201 7203 28
5763 7201 7204 28
5764 7201 7205 28
5765 7206 7207 28
5766 7206 7208 28
5767 7206 7209 28
5768 7206 7210 28
5769 7211 7212 28
5770 7211 7213 28
5771 7211 7214 28
5772 7211 7215 28
5773 7216 7217 28
5774 7216 7218 28
5775 7216 7219 28
5776 7216 7220 28
5777 7221 7222 28
5778 7221 7223 28
5779 7221 7224 28
5780 7221 7225 28
5781 7226 7227 28
5782 7226 7228 28
5783 7226 7229 28
5784 7226 7230 28
5785 7231 7232 28
5786 7231 7233 28
5787 7231 7234 28
5788 7231 7235 28
5789 7236 7237 28
5790 7236 7238 28
5791 7236 7239 28
5792 7236 7240 28
5793 7241 7242 28
5794 7241 7243 28
5795 7241 7244 28
5796 7241 7245 28
5797 7246 7247 28
5798 7246 7248 28
5799 7246 7249 28
5800 7246 7250 28
5801 7251 7252 28
5802 7251 7253 28
5803 7251 7254 28
5804 7251 7255 28
5805 7256 7257 28
5806 7256 7258 28
5807 7256 7259 28
5808 7256 7260 28
5809 7261 7262 28
5810 7261 7263 28
5811 7261 7264 28
5812 7261 7265 28
5813 7266 7267 28
5814 7266 7268 28
5815 7266 7269 28
5816 7266 7270 28
5817 7271 7272 28
5818 7271 7273 28
5819 7271 7274 28
5820 7271 7275 28
5821 7276 7277 28
5822 7276 7278 28
5823 7276 7279 28
5824 7276 7280 28
5825 7281 7282 28
5826 7281 7283 28
5827 7281 7284 28
5828 7281 7285 28
5829 7286 7287 28
5830 7286 7288 28
5831 7286 7289 28
5832 7286 7290 28
5833 7291 7292 28
5834 7291 7293 28
5835 7291 7294 28
5836 7291 7295 28
5837 7296 7297 28
5838 7296 7298 28
5839 7296 7299 28
5840 7296 7300 28
5841 7301 7302 28
5842 7301 7303 28
5843 7301 7304 28
5844 7301 7305 28
5845 7306 7307 28
5846 7306 7308 28
5847 7306 7309 28
5848 7306 7310 28
5849 7311 7312 28
5850 7311 7313 28
5851 7311 7314 28
5852 7311 7315 28
5853 7316 7317 28
5854 7316 7318 28
5855 7316 7319 28
5856 7316 7320 28
5857 7321 7322 28
5858 7321 7323 28
5859 7321 7324 28
5860 7321 7325 28
5861 7326 7327 28
5862 7326 7328 28
5863 7326 7329 28
5864 7326 7330 28
5865 7331 7332 28
5866 7331 7333 28
5867 7331 7334 28
5868 7331 7335 28
5869 7336 7337 28
5870 7336 7338 28
5871 7336 7339 28
5872 7336 7340 28
5873 7341 7342 28
5874 7341 7343 28
5875 7341 7344 28
5876 7341 7345 28
5877 7346 7347 28
5878 7346 7348 28
5879 7346 7349 28
5880 7346 7350 28
5881 7351 7352 28
5882 7351 7353 28
5883 7351 7354 28
5884 7351 7355 28
5885 7356 7357 28
5886 7356 7358 28
5887 7356 7359 28
5888 7356 7360 28
5889 7361 7362 28
5890 7361 7363 28
5891 7361 7364 28
5892 7361 7365 28
5893 7366 7367 28
5894 7366 7368 28
5895 7366 7369 28
5896 7366 7370 28
5897 7371 7372 28
5898 7371 7373 28
5899 7371 7374 28
5900 7371 7375 28
5901 7376 7377 28
5902 7376 7378 28
5903 7376 7379 28
5904 7376 7380 28
5905 7381 7382 28
5906 7381 7383 28
5907 7381 7384 28
5908 7381 7385 28
5909 7386 7387 28
5910 7386 7388 28
5911 7386 7389 28
5912 7386 7390 28
5913 7391 7392 28
5914 7391 7393 28
5915 7391 7394 28
5916 7391 7395 28
5917 7396 7397 28
5918 7396 7398 28
5919 7396 7399 28
5920 7396 7400 28
5921 7401 7402 28
5922 7401 7403 28
5923 7401 7404 28
5924 7401 7405 28
5925 7406 7407 28
5926 7406 7408 28
5927 7406 7409 28
5928 7406 7410 28
5929 7411 7412 28
5930 7411 7413 28
5931 7411 7414 28
5932 7411 7415 28
5933 7416 7417 28
5934 7416 7418 28
5935 7416 7419 28
5936 7416 7420 28
5937 7421 7422 28
5938 7421 7423 28
5939 7421 7424 28
5940 7421 7425 28
5941 7426 7427 28
5942 7426 7428 28
5943 7426 7429 28
5944 7426 7430 28
5945 7431 7432 28
5946 7431 7433 28
5947 7431 7434 28
5948 7431 7435 28
5949 7436 7437 28
5950 7436 7438 28
5951 7436 7439 28
5952 7436 7440 28
5953 7441 7442 28
5954 7441 7443 28
5955 7441 7444 28
5956 7441 7445 28
5957 7446 7447 28
5958 7446 7448 28
5959 7446 7449 28
5960 7446 7450 28
5961 7451 7452 28
5962 7451 7453 28
5963 7451 7454 28
5964 7451 7455 28
5965 7456 7457 28
5966 7456 7458 28
5967 7456 7459 28
5968 7456 7460 28
5969 7461 7462 28
5970 7461 7463 28
5971 7461 7464 28
5972 7461 7465 28
5973 7466 7467 28
5974 7466 7468 28
5975 7466 7469 28
5976 7466 7470 28
5977 7471 7472 28
5978 7471 7473 28
5979 7471 7474 28
5980 7471 7475 28
5981 7476 7477 28
5982 7476 7478 28
5983 7476 7479 28
5984 7476 7480 28
5985 7481 7482 28
5986 7481 7483 28
5987 7481 7484 28
5988 7481 7485 28
5989 7486 7487 28
5990 7486 7488 28
5991 7486 7489 28
5992 7486 7490 28
5993 7491 7492 28
5994 7491 7493 28
5995 7491 7494 28
5996 7491 7495 28
5997 7496 7497 28
5998 7496 7498 28
5999 7496 7499 28
6000 7496 7500 28
6001 7501 7502 28
6002 7501 7503 28
6003 7501 7504 28
6004 7501 7505 28
6005 7506 7507 28
6006 7506 7508 28
6007 7506 7509 28
6008 7506 7510 28
6009 7511 7512 28
6010 7511 7513 28
6011 7511 7514 28
6012 7511 7515 28
6013 7516 7517 28
6014 7516 7518 28
6015 7516 7519 28
6016 7516 7520 28
6017 7521 7522 28
6018 7521 7523 28
6019 7521 7524 28
6020 7521 7525 28
6021 7526 7527 28
6022 7526 7528 28
6023 7526 7529 28
6024 7526 7530 28
6025 7531 7532 28
6026 7531 7533 28
6027 7531 7534 28
6028 7531 7535 28
6029 7536 7537 28
6030 7536 7538 28
6031 7536 7539 28
6032 7536 7540 28
6033 7541 7542 28
6034 7541 7543 28
6035 7541 7544 28
6036 7541 7545 28
6037 7546 7547 28
6038 7546 7548 28
6039 7546 7549 28
6040 7546 7550 28
6041 7551 7552 28
6042 7551 7553 28
6043 7551 7554 28
6044 7551 7555 28
6045 7556 7557 28
6046 7556 7558 28
6047 7556 7559 28
6048 7556 7560 28
6049 7561 7562 28
6050 7561 7563 28
6051 7561 7564 28
6052 7561 7565 28
6053 7566 7567 28
6054 7566 7568 28
6055 7566 7569 28
6056 7566 7570 28
6057 7571 7572 28
6058 7571 7573 28
6059 7571 7574 28
6060 7571 7575 28
6061 7576 7577 28
6062 7576 7578 28
6063 7576 7579 28
6064 7576 7580 28
6065 7581 7582 28
6066 7581 7583 28
6067 7581 7584 28
6068 7581 7585 28
6069 7586 7587 28
6070 7586 7588 28
6071 7586 7589 28
6072 7586 7590 28
6073 7591 7592 28
6074 7591 7593 28
6075 7591 7594 28
6076 7591 7595 28
6077 7596 7597 28
6078 7596 7598 28
6079 7596 7599 28
6080 7596 7600 28
6081 7601 7602 28
6082 7601 7603 28
6083 7601 7604 28
6084 7601 7605 28
6085 7606 7607 28
6086 7606 7608 28
6087 7606 7609 28
6088 7606 7610 28
6089 7611 7612 28
6090 7611 7613 28
6091 7611 7614 28
6092 7611 7615 28
6093 7616 7617 28
6094 7616 7618 28
6095 7616 7619 28
6096 7616 7620 28
6097 7621 7622 28
6098 7621 7623 28
6099 7621 7624 28
6100 7621 7625 28
6101 7626 7627 28
6102 7626 7628 28
6103 7626 7629 28
6104 7626 7630 28
6105 7631 7632 28
6106 7631 7633 28
6107 7631 7634 28
6108 7631 7635 28
6109 7636 7637 28
6110 7636 7638 28
6111 7636 7639 28
6112 7636 7640 28
6113 7641 7642 28
6114 7641 7643 28
6115 7641 7644 28
6116 7641 7645 28
6117 7646 7647 28
6118 7646 7648 28
6119 7646 7649 28
6120 7646 7650 28
6121 7651 7652 28
6122 7651 7653 28
6123 7651 7654 28
6124 7651 7655 28
6125 7656 7657 28
6126 7656 7658 28
6127 7656 7659 28
6128 7656 7660 28
6129 7661 7662 28
6130 7661 7663 28
6131 7661 7664 28
6132 7661 7665 28
6133 7666 7667 28
6134 7666 7668 28
6135 7666 7669 28
6136 7666 7670 28
6137 7671 7672 28
6138 7671 7673 28
6139 7671 7674 28
6140 7671 7675 28
6141 7676 7677 28
6142 7676 7678 28
6143 7676 7679 28
6144 7676 7680 28
6145 7681 7682 28
6146 7681 7683 28
6147 7681 7684 28
6148 7681 7685 28
6149 7686 7687 28
6150 7686 7688 28
6151 7686 7689 28
6152 7686 7690 28
6153 7691 7692 28
6154 7691 7693 28
6155 7691 7694 28
6156 7691 7695 28
6157 7696 7697 28
6158 7696 7698 28
6159 7696 7699 28
6160 7696 7700 28
6161 7701 7702 28
6162 7701 7703 28
6163 7701 7704 28
6164 7701 7705 28
6165 7706 7707 28
6166 7706 7708 28
6167 7706 7709 28
6168 7706 7710 28
6169 7711 7712 28
6170 7711 7713 28
6171 7711 7714 28
6172 7711 7715 28
6173 7716 7717 28
6174 7716 7718 28
6175 7716 7719 28
6176 7716 7720 28
6177 7721 7722 28
6178 7721 7723 28
6179 7721 7724 28
6180 7721 7725 28
6181 7726 7727 28
6182 7726 7728 28
6183 7726 7729 28
6184 7726 7730 28
6185 7731 7732 28
6186 7731 7733 28
6187 7731 7734 28
6188 7731 7735 28
6189 7736 7737 28
6190 7736 7738 28
6191 7736 7739 28
6192 7736 7740 28
6193 7741 7742 28
6194 7741 7743 28
6195 7741 7744 28
6196 7741 7745 28
6197 7746 7747 28
6198 7746 7748 28
6199 7746 7749 28
6200 7746 7750 28
6201 7751 7752 28
6202 7751 7753 28
6203 7751 7754 28
6204 7751 7755 28
6205 7756 7757 28
6206 7756 7758 28
6207 7756 7759 28
6208 7756 7760 28
6209 7761 7762 28
6210 7761 7763 28
6211 7761 7764 28
6212 7761 7765 28
6213 7766 7767 28
6214 7766 7768 28
6215 7766 7769 28
6216 7766 7770 28
6217 7771 7772 28
6218 7771 7773 28
6219 7771 7774 28
6220 7771 7775 28
6221 7776 7777 28
6222 7776 7778 28
6223 7776 7779 28
6224 7776 7780 28
6225 7781 7782 28
6226 7781 7783 28
6227 7781 7784 28
6228 7781 7785 28
6229 7786 7787 28
6230 7786 7788 28
6231 7786 7789 28
6232 7786 7790 28
6233 7791 7792 28
6234 7791 7793 28
6235 7791 7794 28
6236 7791 7795 28
6237 7796 7797 28
6238 7796 7798 28
6239 7796 7799 28
6240 7796 7800 28
6241 7801 7802 28
6242 7801 7803 28
6243 7801 7804 28
6244 7801 7805 28
6245 7806 7807 28
6246 7806 7808 28
6247 7806 7809 28
6248 7806 7810 28
6249 7811 7812 28
6250 7811 7813 28
6251 7811 7814 28
6252 7811 7815 28
6253 7816 7817 28
6254 7816 7818 28
6255 7816 7819 28
6256 7816 7820 28
6257 7821 7822 28
6258 7821 7823 28
6259 7821 7824 28
6260 7821 7825 28
6261 7826 7827 28
6262 7826 7828 28
6263 7826 7829 28
6264 7826 7830 28
6265 7831 7832 28
6266 7831 7833 28
6267 7831 7834 28
6268 7831 7835 28
6269 7836 7837 28
6270 7836 7838 28
6271 7836 7839 28
6272 7836 7840 28
6273 7841 7842 28
6274 7841 7843 28
6275 7841 7844 28
6276 7841 7845 28
6277 7846 7847 28
6278 7846 7848 28
6279 7846 7849 28
6280 7846 7850 28
6281 7851 7852 28
6282 7851 7853 28
6283 7851 7854 28
6284 7851 7855 28
6285 7856 7857 28
6286 7856 7858 28
6287 7856 7859 28
6288 7856 7860 28
6289 7861 7862 28
6290 7861 7863 28
6291 7861 7864 28
6292 7861 7865 28
6293 7866 7867 28
6294 7866 7868 28
6295 7866 7869 28
6296 7866 7870 28
6297 7871 7872 28
6298 7871 7873 28
6299 7871 7874 28
6300 7871 7875 28
6301 7876 7877 28
6302 7876 7878 28
6303 7876 7879 28
6304 7876 7880 28
6305 7881 7882 28
6306 7881 7883 28
6307 7881 7884 28
6308 7881 7885 28
6309 7886 7887 28
6310 7886 7888 28
6311 7886 7889 28
6312 7886 7890 28
6313 7891 7892 28
6314 7891 7893 28
6315 7891 7894 28
6316 7891 7895 28
6317 7896 7897 28
6318 7896 7898 28
6319 7896 7899 28
6320 7896 7900 28
6321 7901 7902 28
6322 7901 7903 28
6323 7901 7904 28
6324 7901 7905 28
6325 7906 7907 28
6326 7906 7908 28
6327 7906 7909 28
6328 7906 7910 28
6329 7911 7912 28
6330 7911 7913 28
6331 7911 7914 28
6332 7911 7915 28
6333 7916 7917 28
6334 7916 7918 28
6335 7916 7919 28
6336 7916 7920 28
6337 7921 7922 28
6338 7921 7923 28
6339 7921 7924 28
6340 7921 7925 28
6341 7926 7927 28
6342 7926 7928 28
6343 7926 7929 28
6344 7926 7930 28
6345 7931 7932 28
6346 7931 7933 28
6347 7931 7934 28
6348 7931 7935 28
6349 7936 7937 28
6350 7936 7938 28
6351 7936 7939 28
6352 7936 7940 28
6353 7941 7942 28
6354 7941 7943 28
6355 7941 7944 28
6356 7941 7945 28
6357 7946 7947 28
6358 7946 7948 28
6359 7946 7949 28
6360 7946 7950 28
6361 7951 7952 28
6362 7951 7953 28
6363 7951 7954 28
6364 7951 7955 28
6365 7956 7957 28
6366 7956 7958 28
6367 7956 7959 28
6368 7956 7960 28
6369 7961 7962 28
6370 7961 7963 28
6371 7961 7964 28
6372 7961 7965 28
6373 7966 7967 28
6374 7966 7968 28
6375 7966 7969 28
6376 7966 7970 28
6377 7971 7972 28
6378 7971 7973 28
6379 7971 7974 28
6380 7971 7975 28
6381 7976 7977 28
6382 7976 7978 28
6383 7976 7979 28
6384 7976 7980 28
6385 7981 7982 28
6386 7981 7983 28
6387 7981 7984 28
6388 7981 7985 28
6389 7986 7987 28
6390 7986 7988 28
6391 7986 7989 28
6392 7986 7990 28
6393 7991 7992 28
6394 7991 7993 28
6395 7991 7994 28
6396 7991 7995 28
6397 7996 7997 28
6398 7996 7998 28
6399 7996 7999 28
6400 7996 8000 28
6401 8001 8002 28
6402 8001 8003 28
6403 8001 8004 28
6404 8001 8005 28
6405 8006 8007 28
6406 8006 8008 28
6407 8006 8009 28
6408 8006 8010 28
6409 8011 8012 28
6410 8011 8013 28
6411 8011 8014 28
6412 8011 8015 28
6413 8016 8017 28
6414 8016 8018 28
6415 8016 8019 28
6416 8016 8020 28
6417 8021 8022 28
6418 8021 8023 28
6419 8021 8024 28
6420 8021 8025 28
6421 8026 8027 28
6422 8026 8028 28
6423 8026 8029 28
6424 8026 8030 28
6425 8031 8032 28
6426 8031 8033 28
6427 8031 8034 28
6428 8031 8035 28
6429 8036 8037 28
6430 8036 8038 28
6431 8036 8039 28
6432 8036 8040 28
6433 8041 8042 28
6434 8041 8043 28
6435 8041 8044 28
6436 8041 8045 28
6437 8046 8047 28
6438 8046 8048 28
6439 8046 8049 28
6440 8046 8050 28
6441 8051 8052 28
6442 8051 8053 28
6443 8051 8054 28
6444 8051 8055 28
6445 8056 8057 28
6446 8056 8058 28
6447 8056 8059 28
6448 8056 8060 28
6449 8061 8062 28
6450 8061 8063 28
6451 8061 8064 28
6452 8061 8065 28
6453 8066 8067 28
6454 8066 8068 28
6455 8066 8069 28
6456 8066 8070 28
6457 8071 8072 28
6458 8071 8073 28
6459 8071 8074 28
6460 8071 8075 28
6461 8076 8077 28
6462 8076 8078 28
6463 8076 8079 28
6464 8076 8080 28
6465 8081 8082 28
6466 8081 8083 28
6467 8081 8084 28
6468 8081 8085 28
6469 8086 8087 28
6470 8086 8088 28
6471 8086 8089 28
6472 8086 8090 28
6473 8091 8092 28
6474 8091 8093 28
6475 8091 8094 28
6476 8091 8095 28
6477 8096 8097 28
6478 8096 8098 28
6479 8096 8099 28
6480 8096 8100 28
6481 8101 8102 28
6482 8101 8103 28
6483 8101 8104 28
6484 8101 8105 28
6485 8106 8107 28
6486 8106 8108 28
6487 8106 8109 28
6488 8106 8110 28
6489 8111 8112 28
6490 8111 8113 28
6491 8111 8114 28
6492 8111 8115 28
6493 8116 8117 28
6494 8116 8118 28
6495 8116 8119 28
6496 8116 8120 28
6497 8121 8122 28
6498 8121 8123 28
6499 8121 8124 28
6500 8121 8125 28
6501 8126 8127 28
6502 8126 8128 28
6503 8126 8129 28
6504 8126 8130 28
6505 8131 8132 28
6506 8131 8133 28
6507 8131 8134 28
6508 8131 8135 28
6509 8136 8137 28
6510 8136 8138 28
6511 8136 8139 28
6512 8136 8140 28
6513 8141 8142 28
6514 8141 8143 28
6515 8141 8144 28
6516 8141 8145 28
6517 8146 8147 28
6518 8146 8148 28
6519 8146 8149 28
6520 8146 8150 28
6521 8151 8152 28
6522 8151 8153 28
6523 8151 8154 28
6524 8151 8155 28
6525 8156 8157 28
6526 8156 8158 28
6527 8156 8159 28
6528 8156 8160 28
6529 8161 8162 28
6530 8161 8163 28
6531 8161 8164 28
6532 8161 8165 28
6533 8166 8167 28
6534 8166 8168 28
6535 8166 8169 28
6536 8166 8170 28
6537 8171 8172 28
6538 8171 8173 28
6539 8171 8174 28
6540 8171 8175 28
6541 8176 8177 28
6542 8176 8178 28
6543 8176 8179 28
6544 8176 8180 28
6545 8181 8182 28
6546 8181 8183 28
6547 8181 8184 28
6548 8181 8185 28
6549 8186 8187 28
6550 8186 8188 28
6551 8186 8189 28
6552 8186 8190 28
6553 8191 8192 28
6554 8191 8193 28
6555 8191 8194 28
6556 8191 8195 28
6557 8196 8197 28
6558 8196 8198 28
6559 8196 8199 28
6560 8196 8200 28
6561 8201 8202 28
6562 8201 8203 28
6563 8201 8204 28
6564 8201 8205 28
6565 8206 8207 28
6566 8206 8208 28
6567 8206 8209 28
6568 8206 8210 28
6569 8211 8212 28
6570 8211 8213 28
6571 8211 8214 28
6572 8211 8215 28
6573 8216 8217 28
6574 8216 8218 28
6575 8216 8219 28
6576 8216 8220 28
6577 8221 8222 28
6578 8221 8223 28
6579 8221 8224 28
6580 8221 8225 28
6581 8226 8227 28
6582 8226 8228 28
6583 8226 8229 28
6584 8226 8230 28
6585 8231 8232 28
6586 8231 8233 28
6587 8231 8234 28
6588 8231 8235 28
6589 8236 8237 28
6590 8236 8238 28
6591 8236 8239 28
6592 8236 8240 28
6593 8241 8242 28
6594 8241 8243 28
6595 8241 8244 28
6596 8241 8245 28
6597 8246 8247 28
6598 8246 8248 28
6599 8246 8249 28
6600 8246 8250 28
6601 8251 8252 28
6602 8251 8253 28
6603 8251 8254 28
6604 8251 8255 28
6605 8256 8257 28
6606 8256 8258 28
6607 8256 8259 28
6608 8256 8260 28
6609 8261 8262 28
6610 8261 8263 28
6611 8261 8264 28
6612 8261 8265 28
6613 8266 8267 28
6614 8266 8268 28
6615 8266 8269 28
6616 8266 8270 28
6617 8271 8272 28
6618 8271 8273 28
6619 8271 8274 28
6620 8271 8275 28
6621 8276 8277 28
6622 8276 8278 28
6623 8276 8279 28
6624 8276 8280 28
6625 8281 8282 28
6626 8281 8283 28
6627 8281 8284 28
6628 8281 8285 28
6629 8286 8287 28
6630 8286 8288 28
6631 8286 8289 28
6632 8286 8290 28
6633 8291 8292 28
6634 8291 8293 28
6635 8291 8294 28
6636 8291 8295 28
6637 8296 8297 28
6638 8296 8298 28
6639 8296 8299 28
6640 8296 8300 28
6641 8301 8302 28
6642 8301 8303 28
6643 8301 8304 28
6644 8301 8305 28
6645 8306 8307 28
6646 8306 8308 28
6647 8306 8309 28
6648 8306 8310 28
6649 8311 8312 28
6650 8311 8313 28
6651 8311 8314 28
6652 8311 8315 28
6653 8316 8317 28
6654 8316 8318 28
6655 8316 8319 28
6656 8316 8320 28
6657 8321 8322 28
6658 8321 8323 28
6659 8321 8324 28
6660 8321 8325 28
6661 8326 8327 28
6662 8326 8328 28
6663 8326 8329 28
6664 8326 8330 28
6665 8331 8332 28
6666 8331 8333 28
6667 8331 8334 28
6668 8331 8335 28
6669 8336 8337 28
6670 8336 8338 28
6671 8336 8339 28
6672 8336 8340 28
6673 8341 8342 28
6674 8341 8343 28
6675 8341 8344 28
6676 8341 8345 28
6677 8346 8347 28
6678 8346 8348 28
6679 8346 8349 28
6680 8346 8350 28
6681 8351 8352 28
6682 8351 8353 28
6683 8351 8354 28
6684 8351 8355 28
6685 8356 8357 28
6686 8356 8358 28
6687 8356 8359 28
6688 8356 8360 28
6689 8361 8362 28
6690 8361 8363 28
6691 8361 8364 28
6692 8361 8365 28
6693 8366 8367 28
6694 8366 8368 28
6695 8366 8369 28
6696 8366 8370 28
6697 8371 8372 28
6698 8371 8373 28
6699 8371 8374 28
6700 8371 8375 28
6701 8376 8377 28
6702 8376 8378 28
6703 8376 8379 28
6704 8376 8380 28
6705 8381 8382 28
6706 8381 8383 28
6707 8381 8384 28
6708 8381 8385 28
6709 8386 8387 28
6710 8386 8388 28
6711 8386 8389 28
6712 8386 8390 28
6713 8391 8392 28
6714 8391 8393 28
6715 8391 8394 28
6716 8391 8395 28
6717 8396 8397 28
6718 8396 8398 28
6719 8396 8399 28
6720 8396 8400 28
6721 8401 8402 28
6722 8401 8403 28
6723 8401 8404 28
6724 8401 8405 28
6725 8406 8407 28
6726 8406 8408 28
6727 8406 8409 28
6728 8406 8410 28
6729 8411 8412 28
6730 8411 8413 28
6731 8411 8414 28
6732 8411 8415 28
6733 8416 8417 28
6734 8416 8418 28
6735 8416 8419 28
6736 8416 8420 28
6737 8421 8422 28
6738 8421 8423 28
6739 8421 8424 28
6740 8421 8425 28
6741 8426 8427 28
6742 8426 8428 28
6743 8426 8429 28
6744 8426 8430 28
6745 8431 8432 28
6746 8431 8433 28
6747 8431 8434 28
6748 8431 8435 28
6749 8436 8437 28
6750 8436 8438 28
6751 8436 8439 28
6752 8436 8440 28
6753 8441 8442 28
6754 8441 8443 28
6755 8441 8444 28
6756 8441 8445 28
6757 8446 8447 28
6758 8446 8448 28
6759 8446 8449 28
6760 8446 8450 28
6761 8451 8452 28
6762 8451 8453 28
6763 8451 8454 28
6764 8451 8455 28
6765 8456 8457 28
6766 8456 8458 28
6767 8456 8459 28
6768 8456 8460 28
6769 8461 8462 28
6770 8461 8463 28
6771 8461 8464 28
6772 8461 8465 28
6773 8466 8467 28
6774 8466 8468 28
6775 8466 8469 28
6776 8466 8470 28
6777 8471 8472 28
6778 8471 8473 28
6779 8471 8474 28
6780 8471 8475 28
6781 8476 8477 28
6782 8476 8478 28
6783 8476 8479 28
6784 8476 8480 28
6785 8481 8482 28
6786 8481 8483 28
6787 8481 8484 28
6788 8481 8485 28
6789 8486 8487 28
6790 8486 8488 28
6791 8486 8489 28
6792 8486 8490 28
6793 8491 8492 28
6794 8491 8493 28
6795 8491 8494 28
6796 8491 8495 28
6797 8496 8497 28
6798 8496 8498 28
6799 8496 8499 28
6800 8496 8500 28
6801 8501 8502 28
6802 8501 8503 28
6803 8501 8504 28
6804 8501 8505 28
6805 8506 8507 28
6806 8506 8508 28
6807 8506 8509 28
6808 8506 8510 28
6809 8511 8512 28
6810 8511 8513 28
6811 8511 8514 28
6812 8511 8515 28
6813 8516 8517 28
6814 8516 8518 28
6815 8516 8519 28
6816 8516 8520 28
6817 8521 8522 28
6818 8521 8523 28
6819 8521 8524 28
6820 8521 8525 28
6821 8526 8527 28
6822 8526 8528 28
6823 8526 8529 28
6824 8526 8530 28
6825 8531 8532 28
6826 8531 8533 28
6827 8531 8534 28
6828 8531 8535 28
6829 8536 8537 28
6830 8536 8538 28
6831 8536 8539 28
6832 8536 8540 28
6833 8541 8542 28
6834 8541 8543 28
6835 8541 8544 28
6836 8541 8545 28
6837 8546 8547 28
6838 8546 8548 28
6839 8546 8549 28
6840 8546 8550 28
6841 8551 8552 28
6842 8551 8553 28
6843 8551 8554 28
6844 8551 8555 28
6845 8556 8557 28
6846 8556 8558 28
6847 8556 8559 28
6848 8556 8560 28
6849 8561 8562 28
6850 8561 8563 28
6851 8561 8564 28
6852 8561 8565 28
6853 8566 8567 28
6854 8566 8568 28
6855 8566 8569 28
6856 8566 8570 28
6857 8571 8572 28
6858 8571 8573 28
6859 8571 8574 28
6860 8571 8575 28
6861 8576 8577 28
6862 8576 8578 28
6863 8576 8579 28
6864 8576 8580 28
6865 8581 8582 28
6866 8581 8583 28
6867 8581 8584 28
6868 8581 8585 28
6869 8586 8587 28
6870 8586 8588 28
6871 8586 8589 28
6872 8586 8590 28
6873 8591 8592 28
6874 8591 8593 28
6875 8591 8594 28
6876 8591 8595 28
6877 8596 8597 28
6878 8596 8598 28
6879 8596 8599 28
6880 8596 8600 28
6881 8601 8602 28
6882 8601 8603 28
6883 8601 8604 28
6884 8601 8605 28
6885 8606 8607 28
6886 8606 8608 28
6887 8606 8609 28
6888 8606 8610 28
6889 8611 8612 28
6890 8611 8613 28
6891 8611 8614 28
6892 8611 8615 28
6893 8616 8617 28
6894 8616 8618 28
6895 8616 8619 28
6896 8616 8620 28
6897 8621 8622 28
6898 8621 8623 28
6899 8621 8624 28
6900 8621 8625 28
6901 8626 8627 28
6902 8626 8628 28
6903 8626 8629 28
6904 8626 8630 28
6905 8631 8632 28
6906 8631 8633 28
6907 8631 8634 28
6908 8631 8635 28
6909 8636 8637 28
6910 8636 8638 28
6911 8636 8639 28
6912 8636 8640 28
6913 8641 8642 28
6914 8641 8643 28
6915 8641 8644 28
6916 8641 8645 28
6917 8646 8647 28
6918 8646 8648 28
6919 8646 8649 28
6920 8646 8650 28
6921 8651 8652 28
6922 8651 8653 28
6923 8651 8654 28
6924 8651 8655 28
6925 8656 8657 28
6926 8656 8658 28
6927 8656 8659 28
6928 8656 8660 28
6929 8661 8662 28
6930 8661 8663 28
6931 8661 8664 28
6932 8661 8665 28
6933 8666 8667 28
6934 8666 8668 28
6935 8666 8669 28
6936 8666 8670 28
6937 8671 8672 28
6938 8671 8673 28
6939 8671 8674 28
6940 8671 8675 28
6941 8676 8677 28
6942 8676 8678 28
6943 8676 8679 28
6944 8676 8680 28
6945 8681 8682 28
6946 8681 8683 28
6947 8681 8684 28
6948 8681 8685 28
6949 8686 8687 28
6950 8686 8688 28
6951 8686 8689 28
6952 8686 8690 28
6953 8691 8692 28
6954 8691 8693 28
6955 8691 8694 28
6956 8691 8695 28
6957 8696 8697 28
6958 8696 8698 28
6959 8696 8699 28
6960 8696 8700 28
6961 8701 8702 28
6962 8701 8703 28
6963 8701 8704 28
6964 8701 8705 28
6965 8706 8707 28
6966 8706 8708 28
6967 8706 8709 28
6968 8706 8710 28
6969 8711 8712 28
6970 8711 8713 28
6971 8711 8714 28
6972 8711 8715 28
6973 8716 8717 28
6974 8716 8718 28
6975 8716 8719 28
6976 8716 8720 28
6977 8721 8722 28
6978 8721 8723 28
6979 8721 8724 28
6980 8721 8725 28
6981 8726 8727 28
6982 8726 8728 28
6983 8726 8729 28
6984 8726 8730 28
6985 8731 8732 28
6986 8731 8733 28
6987 8731 8734 28
6988 8731 8735 28
6989 8736 8737 28
6990 8736 8738 28
6991 8736 8739 28
6992 8736 8740 28
6993 8741 8742 28
6994 8741 8743 28
6995 8741 8744 28
6996 8741 8745 28
6997 8746 8747 28
6998 8746 8748 28
6999 8746 8749 28
7000 8746 8750 28
7001 8751 8752 28
7002 8751 8753 28
7003 8751 8754 28
7004 8751 8755 28
7005 8756 8757 28
7006 8756 8758 28
7007 8756 8759 28
7008 8756 8760 28
7009 8761 8762 28
7010 8761 8763 28
7011 8761 8764 28
7012 8761 8765 28
7013 8766 8767 28
7014 8766 8768 28
7015 8766 8769 28
7016 8766 8770 28
7017 8771 8772 28
7018 8771 8773 28
7019 8771 8774 28
7020 8771 8775 28
7021 8776 8777 28
7022 8776 8778 28
7023 8776 8779 28
7024 8776 8780 28
7025 8781 8782 28
7026 8781 8783 28
7027 8781 8784 28
7028 8781 8785 28
7029 8786 8787 28
7030 8786 8788 28
7031 8786 8789 28
7032 8786 8790 28
7033 8791 8792 28
7034 8791 8793 28
7035 8791 8794 28
7036 8791 8795 28
7037 8796 8797 28
7038 8796 8798 28
7039 8796 8799 28
7040 8796 8800 28
7041 8801 8802 28
7042 8801 8803 28
7043 8801 8804 28
7044 8801 8805 28
7045 8806 8807 28
7046 8806 8808 28
7047 8806 8809 28
7048 8806 8810 28
7049 8811 8812 28
7050 8811 8813 28
7051 8811 8814 28
7052 8811 8815 28
7053 8816 8817 28
7054 8816 8818 28
7055 8816 8819 28
7056 8816 8820 28
7057 8821 8822 28
7058 8821 8823 28
7059 8821 8824 28
7060 8821 8825 28
7061 8826 8827 28
7062 8826 8828 28
7063 8826 8829 28
7064 8826 8830 28
7065 8831 8832 28
7066 8831 8833 28
7067 8831 8834 28
7068 8831 8835 28
7069 8836 8837 28
7070 8836 8838 28
7071 8836 8839 28
7072 8836 8840 28
7073 8841 8842 28
7074 8841 8843 28
7075 8841 8844 28
7076 8841 8845 28
7077 8846 8847 28
7078 8846 8848 28
7079 8846 8849 28
7080 8846 8850 28
7081 8851 8852 28
7082 8851 8853 28
7083 8851 8854 28
7084 8851 8855 28
7085 8856 8857 28
7086 8856 8858 28
7087 8856 8859 28
7088 8856 8860 28
7089 8861 8862 28
7090 8861 8863 28
7091 8861 8864 28
7092 8861 8865 28
7093 8866 8867 28
7094 8866 8868 28
7095 8866 8869 28
7096 8866 8870 28
7097 8871 8872 28
7098 8871 8873 28
7099 8871 8874 28
7100 8871 8875 28
7101 8876 8877 28
7102 8876 8878 28
7103 8876 8879 28
7104 8876 8880 28
7105 8881 8882 28
7106 8881 8883 28
7107 8881 8884 28
7108 8881 8885 28
7109 8886 8887 28
7110 8886 8888 28
7111 8886 8889 28
7112 8886 8890 28
7113 8891 8892 28
7114 8891 8893 28
7115 8891 8894 28
7116 8891 8895 28
7117 8896 8897 28
7118 8896 8898 28
7119 8896 8899 28
7120 8896 8900 28
7121 8901 8902 28
7122 8901 8903 28
7123 8901 8904 28
7124 8901 8905 28
7125 8906 8907 28
7126 8906 8908 28
7127 8906 8909 28
7128 8906 8910 28
7129 8911 8912 28
7130 8911 8913 28
7131 8911 8914 28
7132 8911 8915 28
7133 8916 8917 28
7134 8916 8918 28
7135 8916 8919 28
7136 8916 8920 28
7137 8921 8922 28
7138 8921 8923 28
7139 8921 8924 28
7140 8921 8925 28
7141 8926 8927 28
7142 8926 8928 28
7143 8926 8929 28
7144 8926 8930 28
7145 8931 8932 28
7146 8931 8933 28
7147 8931 8934 28
7148 8931 8935 28
7149 8936 8937 28
7150 8936 8938 28
7151 8936 8939 28
7152 8936 8940 28
7153 8941 8942 28
7154 8941 8943 28
7155 8941 8944 28
7156 8941 8945 28
7157 8946 8947 28
7158 8946 8948 28
7159 8946 8949 28
7160 8946 8950 28
7161 8951 8952 28
7162 8951 8953 28
7163 8951 8954 28
7164 8951 8955 28
7165 8956 8957 28
7166 8956 8958 28
7167 8956 8959 28
7168 8956 8960 28
7169 8961 8962 28
7170 8961 8963 28
7171 8961 8964 28
7172 8961 8965 28
7173 8966 8967 28
7174 8966 8968 28
7175 8966 8969 28
7176 8966 8970 28
7177 8971 8972 28
7178 8971 8973 28
7179 8971 8974 28
7180 8971 8975 28
7181 8976 8977 28
7182 8976 8978 28
7183 8976 8979 28
7184 8976 8980 28
7185 8981 8982 28
7186 8981 8983 28
7187 8981 8984 28
7188 8981 8985 28
7189 8986 8987 28
7190 8986 8988 28
7191 8986 8989 28
7192 8986 8990 28
7193 8991 8992 28
7194 8991 8993 28
7195 8991 8994 28
7196 8991 8995 28
7197 8996 8997 28
7198 8996 8998 28
7199 8996 8999 28
7200 8996 9000 28
7201 9001 9002 28
7202 9001 9003 28
7203 9001 9004 28
7204 9001 9005 28
7205 9006 9007 28
7206 9006 9008 28
7207 9006 9009 28
7208 9006 9010 28
7209 9011 9012 28
7210 9011 9013 28
7211 9011 9014 28
7212 9011 9015 28
7213 9016 9017 28
7214 9016 9018 28
7215 9016 9019 28
7216 9016 9020 28
7217 9021 9022 28
7218 9021 9023 28
7219 9021 9024 28
7220 9021 9025 28
7221 9026 9027 28
7222 9026 9028 28
7223 9026 9029 28
7224 9026 9030 28
7225 9031 9032 28
7226 9031 9033 28
7227 9031 9034 28
7228 9031 9035 28
7229 9036 9037 28
7230 9036 9038 28
7231 9036 9039 28
7232 9036 9040 28
7233 9041 9042 28
7234 9041 9043 28
7235 9041 9044 28
7236 9041 9045 28
7237 9046 9047 28
7238 9046 9048 28
7239 9046 9049 28
7240 9046 9050 28
7241 9051 9052 28
7242 9051 9053 28
7243 9051 9054 28
7244 9051 9055 28
7245 9056 9057 28
7246 9056 9058 28
7247 9056 9059 28
7248 9056 9060 28
7249 9061 9062 28
7250 9061 9063 28
7251 9061 9064 28
7252 9061 9065 28
7253 9066 9067 28
7254 9066 9068 28
7255 9066 9069 28
7256 9066 9070 28
7257 9071 9072 28
7258 9071 9073 28
7259 9071 9074 28
7260 9071 9075 28
7261 9076 9077 28
7262 9076 9078 28
7263 9076 9079 28
7264 9076 9080 28
7265 9081 9082 28
7266 9081 9083 28
7267 9081 9084 28
7268 9081 9085 28
7269 9086 9087 28
7270 9086 9088 28
7271 9086 9089 28
7272 9086 9090 28
7273 9091 9092 28
7274 9091 9093 28
7275 9091 9094 28
7276 9091 9095 28
7277 9096 9097 28
7278 9096 9098 28
7279 9096 9099 28
7280 9096 9100 28
7281 9101 9102 28
7282 9101 9103 28
7283 9101 9104 28
7284 9101 9105 28
7285 9106 9107 28
7286 9106 9108 28
7287 9106 9109 28
7288 9106 9110 28
7289 9111 9112 28
7290 9111 9113 28
7291 9111 9114 28
7292 9111 9115 28
7293 9116 9117 28
7294 9116 9118 28
7295 9116 9119 28
7296 9116 9120 28
7297 9121 9122 28
7298 9121 9123 28
7299 9121 9124 28
7300 9121 9125 28
7301 9126 9127 28
7302 9126 9128 28
7303 9126 9129 28
7304 9126 9130 28
7305 9131 9132 28
7306 9131 9133 28
7307 9131 9134 28
7308 9131 9135 28
7309 9136 9137 28
7310 9136 9138 28
7311 9136 9139 28
7312 9136 9140 28
7313 9141 9142 28
7314 9141 9143 28
7315 9141 9144 28
7316 9141 9145 28
7317 9146 9147 28
7318 9146 9148 28
7319 9146 9149 28
7320 9146 9150 28
7321 9151 9152 28
7322 9151 9153 28
7323 9151 9154 28
7324 9151 9155 28
7325 9156 9157 28
7326 9156 9158 28
7327 9156 9159 28
7328 9156 9160 28
7329 9161 9162 28
7330 9161 9163 28
7331 9161 9164 28
7332 9161 9165 28
7333 9166 9167 28
7334 9166 9168 28
7335 9166 9169 28
7336 9166 9170 28
7337 9171 9172 28
7338 9171 9173 28
7339 9171 9174 28
7340 9171 9175 28
7341 9176 9177 28
7342 9176 9178 28
7343 9176 9179 28
7344 9176 9180 28
7345 9181 9182 28
7346 9181 9183 28
7347 9181 9184 28
7348 9181 9185 28
7349 9186 9187 28
7350 9186 9188 28
7351 9186 9189 28
7352 9186 9190 28
7353 9191 9192 28
7354 9191 9193 28
7355 9191 9194 28
7356 9191 9195 28
7357 9196 9197 28
7358 9196 9198 28
7359 9196 9199 28
7360 9196 9200 28
7361 9201 9202 28
7362 9201 9203 28
7363 9201 9204 28
7364 9201 9205 28
7365 9206 9207 28
7366 9206 9208 28
7367 9206 9209 28
7368 9206 9210 28
7369 9211 9212 28
7370 9211 9213 28
7371 9211 9214 28
7372 9211 9215 28
7373 9216 9217 28
7374 9216 9218 28
7375 9216 9219 28
7376 9216 9220 28
7377 9221 9222 28
7378 9221 9223 28
7379 9221 9224 28
7380 9221 9225 28
7381 9226 9227 28
7382 9226 9228 28
7383 9226 9229 28
7384 9226 9230 28
7385 9231 9232 28
7386 9231 9233 28
7387 9231 9234 28
7388 9231 9235 28
7389 9236 9237 28
7390 9236 9238 28
7391 9236 9239 28
7392 9236 9240 28
7393 9241 9242 28
7394 9241 9243 28
7395 9241 9244 28
7396 9241 9245 28
7397 9246 9247 28
7398 9246 9248 28
7399 9246 9249 28
7400 9246 9250 28
7401 9251 9252 28
7402 9251 9253 28
7403 9251 9254 28
7404 9251 9255 28
7405 9256 9257 28
7406 9256 9258 28
7407 9256 9259 28
7408 9256 9260 28
7409 9261 9262 28
7410 9261 9263 28
7411 9261 9264 28
7412 9261 9265 28
7413 9266 9267 28
7414 9266 9268 28
7415 9266 9269 28
7416 9266 9270 28
7417 9271 9272 28
7418 9271 9273 28
7419 9271 9274 28
7420 9271 9275 28
7421 9276 9277 28
7422 9276 9278 28
7423 9276 9279 28
7424 9276 9280 28
7425 9281 9282 28
7426 9281 9283 28
7427 9281 9284 28
7428 9281 9285 28
7429 9286 9287 28
7430 9286 9288 28
7431 9286 9289 28
7432 9286 9290 28
7433 9291 9292 28
7434 9291 9293 28
7435 9291 9294 28
7436 9291 9295 28
7437 9296 9297 28
7438 9296 9298 28
7439 9296 9299 28
7440 9296 9300 28
7441 9301 9302 28
7442 9301 9303 28
7443 9301 9304 28
7444 9301 9305 28
7445 9306 9307 28
7446 9306 9308 28
7447 9306 9309 28
7448 9306 9310 28
7449 9311 9312 28
7450 9311 9313 28
7451 9311 9314 28
7452 9311 9315 28
7453 9316 9317 28
7454 9316 9318 28
7455 9316 9319 28
7456 9316 9320 28
7457 9321 9322 28
7458 9321 9323 28
7459 9321 9324 28
7460 9321 9325 28
7461 9326 9327 28
7462 9326 9328 28
7463 9326 9329 28
7464 9326 9330 28
7465 9331 9332 28
7466 9331 9333 28
7467 9331 9334 28
7468 9331 9335 28
7469 9336 9337 28
7470 9336 9338 28
7471 9336 9339 28
7472 9336 9340 28
7473 9341 9342 28
7474 9341 9343 28
7475 9341 9344 28
7476 9341 9345 28
7477 9346 9347 28
7478 9346 9348 28
7479 9346 9349 28
7480 9346 9350 28
7481 9351 9352 28
7482 9351 9353 28
7483 9351 9354 28
7484 9351 9355 28
7485 9356 9357 28
7486 9356 9358 28
7487 9356 9359 28
7488 9356 9360 28
7489 9361 9362 28
7490 9361 9363 28
7491 9361 9364 28
7492 9361 9365 28
7493 9366 9367 28
7494 9366 9368 28
7495 9366 9369 28
7496 9366 9370 28
7497 9371 9372 28
7498 9371 9373 28
7499 9371 9374 28
7500 9371 9375 28
7501 9376 9377 28
7502 9376 9378 28
7503 9376 9379 28
7504 9376 9380 28
7505 9381 9382 28
7506 9381 9383 28
7507 9381 9384 28
7508 9381 9385 28
7509 9386 9387 28
7510 9386 9388 28
7511 9386 9389 28
7512 9386 9390 28
7513 9391 9392 28
7514 9391 9393 28
7515 9391 9394 28
7516 9391 9395 28
7517 9396 9397 28
7518 9396 9398 28
7519 9396 9399 28
7520 9396 9400 28
7521 9401 9402 28
7522 9401 9403 28
7523 9401 9404 28
7524 9401 9405 28
7525 9406 9407 28
7526 9406 9408 28
7527 9406 9409 28
7528 9406 9410 28
7529 9411 9412 28
7530 9411 9413 28
7531 9411 9414 28
7532 9411 9415 28
7533 9416 9417 28
7534 9416 9418 28
7535 9416 9419 28
7536 9416 9420 28
7537 9421 9422 28
7538 9421 9423 28
7539 9421 9424 28
7540 9421 9425 28
7541 9426 9427 28
7542 9426 9428 28
7543 9426 9429 28
7544 9426 9430 28
7545 9431 9432 28
7546 9431 9433 28
7547 9431 9434 28
7548 9431 9435 28
7549 9436 9437 28
7550 9436 9438 28
7551 9436 9439 28
7552 9436 9440 28
7553 9441 9442 28
7554 9441 9443 28
7555 9441 9444 28
7556 9441 9445 28
7557 9446 9447 28
7558 9446 9448 28
7559 9446 9449 28
7560 9446 9450 28
7561 9451 9452 28
7562 9451 9453 28
7563 9451 9454 28
7564 9451 9455 28
7565 9456 9457 28
7566 9456 9458 28
7567 9456 9459 28
7568 9456 9460 28
7569 9461 9462 28
7570 9461 9463 28
7571 9461 9464 28
7572 9461 9465 28
7573 9466 9467 28
7574 9466 9468 28
7575 9466 9469 28
7576 9466 9470 28
7577 9471 9472 28
7578 9471 9473 28
7579 9471 9474 28
7580 9471 9475 28
7581 9476 9477 28
7582 9476 9478 28
7583 9476 9479 28
7584 9476 9480 28
7585 9481 9482 28
7586 9481 9483 28
7587 9481 9484 28
7588 9481 9485 28
7589 9486 9487 28
7590 9486 9488 28
7591 9486 9489 28
7592 9486 9490 28
7593 9491 9492 28
7594 9491 9493 28
7595 9491 9494 28
7596 9491 9495 28
7597 9496 9497 28
7598 9496 9498 28
7599 9496 9499 28
7600 9496 9500 28
7601 9501 9502 28
7602 9501 9503 28
7603 9501 9504 28
7604 9501 9505 28
7605 9506 9507 28
7606 9506 9508 28
7607 9506 9509 28
7608 9506 9510 28
7609 9511 9512 28
7610 9511 9513 28
7611 9511 9514 28
7612 9511 9515 28
7613 9516 9517 28
7614 9516 9518 28
7615 9516 9519 28
7616 9516 9520 28
7617 9521 9522 28
7618 9521 9523 28
7619 9521 9524 28
7620 9521 9525 28
7621 9526 9527 28
7622 9526 9528 28
7623 9526 9529 28
7624 9526 9530 28
7625 9531 9532 28
7626 9531 9533 28
7627 9531 9534 28
7628 9531 9535 28
7629 9536 9537 28
7630 9536 9538 28
7631 9536 9539 28
7632 9536 9540 28
7633 9541 9542 28
7634 9541 9543 28
7635 9541 9544 28
7636 9541 9545 28
7637 9546 9547 28
7638 9546 9548 28
7639 9546 9549 28
7640 9546 9550 28
7641 9551 9552 28
7642 9551 9553 28
7643 9551 9554 28
7644 9551 9555 28
7645 9556 9557 28
7646 9556 9558 28
7647 9556 9559 28
7648 9556 9560 28
7649 9561 9562 28
7650 9561 9563 28
7651 9561 9564 28
7652 9561 9565 28
7653 9566 9567 28
7654 9566 9568 28
7655 9566 9569 28
7656 9566 9570 28
7657 9571 9572 28
7658 9571 9573 28
7659 9571 9574 28
7660 9571 9575 28
7661 9576 9577 28
7662 9576 9578 28
7663 9576 9579 28
7664 9576 9580 28
7665 9581 9582 28
7666 9581 9583 28
7667 9581 9584 28
7668 9581 9585 28
7669 9586 9587 28
7670 9586 9588 28
7671 9586 9589 28
7672 9586 9590 28
7673 9591 9592 28
7674 9591 9593 28
7675 9591 9594 28
7676 9591 9595 28
7677 9596 9597 28
7678 9596 9598 28
7679 9596 9599 28
7680 9596 9600 28
7681 9601 9602 28
7682 9601 9603 28
7683 9601 9604 28
7684 9601 9605 28
7685 9606 9607 28
7686 9606 9608 28
7687 9606 9609 28
7688 9606 9610 28
7689 9611 9612 28
7690 9611 9613 28
7691 9611 9614 28
7692 9611 9615 28
7693 9616 9617 28
7694 9616 9618 28
7695 9616 9619 28
7696 9616 9620 28
7697 9621 9622 28
7698 9621 9623 28
7699 9621 9624 28
7700 9621 9625 28
7701 9626 9627 28
7702 9626 9628 28
7703 9626 9629 28
7704 9626 9630 28
7705 9631 9632 28
7706 9631 9633 28
7707 9631 9634 28
7708 9631 9635 28
7709 9636 9637 28
7710 9636 9638 28
7711 9636 9639 28
7712 9636 9640 28
7713 9641 9642 28
7714 9641 9643 28
7715 9641 9644 28
7716 9641 9645 28
7717 9646 9647 28
7718 9646 9648 28
7719 9646 9649 28
7720 9646 9650 28
7721 9651 9652 28
7722 9651 9653 28
7723 9651 9654 28
7724 9651 9655 28
7725 9656 9657 28
7726 9656 9658 28
7727 9656 9659 28
7728 9656 9660 28
7729 9661 9662 28
7730 9661 9663 28
7731 9661 9664 28
7732 9661 9665 28
7733 9666 9667 28
7734 9666 9668 28
7735 9666 9669 28
7736 9666 9670 28
7737 9671 9672 28
7738 9671 9673 28
7739 9671 9674 28
7740 9671 9675 28
7741 9676 9677 28
7742 9676 9678 28
7743 9676 9679 28
7744 9676 9680 28
7745 9681 9682 28
7746 9681 9683 28
7747 9681 9684 28
7748 9681 9685 28
7749 9686 9687 28
7750 9686 9688 28
7751 9686 9689 28
7752 9686 9690 28
7753 9691 9692 28
7754 9691 9693 28
7755 9691 9694 28
7756 9691 9695 28
7757 9696 9697 28
7758 9696 9698 28
7759 9696 9699 28
7760 9696 9700 28
7761 9701 9702 28
7762 9701 9703 28
7763 9701 9704 28
7764 9701 9705 28
7765 9706 9707 28
7766 9706 9708 28
7767 9706 9709 28
7768 9706 9710 28
7769 9711 9712 28
7770 9711 9713 28
7771 9711 9714 28
7772 9711 9715 28
7773 9716 9717 28
7774 9716 9718 28
7775 9716 9719 28
7776 9716 9720 28
7777 9721 9722 28
7778 9721 9723 28
7779 9721 9724 28
7780 9721 9725 28
7781 9726 9727 28
7782 9726 9728 28
7783 9726 9729 28
7784 9726 9730 28
7785 9731 9732 28
7786 9731 9733 28
7787 9731 9734 28
7788 9731 9735 28
7789 9736 9737 28
7790 9736 9738 28
7791 9736 9739 28
7792 9736 9740 28
7793 9741 9742 28
7794 9741 9743 28
7795 9741 9744 28
7796 9741 9745 28
7797 9746 9747 28
7798 9746 9748 28
7799 9746 9749 28
7800 9746 9750 28
7801 9751 9752 28
7802 9751 9753 28
7803 9751 9754 28
7804 9751 9755 28
7805 9756 9757 28
7806 9756 9758 28
7807 9756 9759 28
7808 9756 9760 28
7809 9761 9762 28
7810 9761 9763 28
7811 9761 9764 28
7812 9761 9765 28
7813 9766 9767 28
7814 9766 9768 28
7815 9766 9769 28
7816 9766 9770 28
7817 9771 9772 28
7818 9771 9773 28
7819 9771 9774 28
7820 9771 9775 28
7821 9776 9777 28
7822 9776 9778 28
7823 9776 9779 28
7824 9776 9780 28
7825 9781 9782 28
7826 9781 9783 28
7827 9781 9784 28
7828 9781 9785 28
7829 9786 9787 28
7830 9786 9788 28
7831 9786 9789 28
7832 9786 9790 28
7833 9791 9792 28
7834 9791 9793 28
7835 9791 9794 28
7836 9791 9795 28
7837 9796 9797 28
7838 9796 9798 28
7839 9796 9799 28
7840 9796 9800 28
7841 9801 9802 28
7842 9801 9803 28
7843 9801 9804 28
7844 9801 9805 28
7845 9806 9807 28
7846 9806 9808 28
7847 9806 9809 28
7848 9806 9810 28
7849 9811 9812 28
7850 9811 9813 28
7851 9811 9814 28
7852 9811 9815 28
7853 9816 9817 28
7854 9816 9818 28
7855 9816 9819 28
7856 9816 9820 28
7857 9821 9822 28
7858 9821 9823 28
7859 9821 9824 28
7860 9821 9825 28
7861 9826 9827 28
7862 9826 9828 28
7863 9826 9829 28
7864 9826 9830 28
7865 9831 9832 28
7866 9831 9833 28
7867 9831 9834 28
7868 9831 9835 28
7869 9836 9837 28
7870 9836 9838 28
7871 9836 9839 28
7872 9836 9840 28
7873 9841 9842 28
7874 9841 9843 28
7875 9841 9844 28
7876 9841 9845 28
7877 9846 9847 28
7878 9846 9848 28
7879 9846 9849 28
7880 9846 9850 28
7881 9851 9852 28
7882 9851 9853 28
7883 9851 9854 28
7884 9851 9855 28
7885 9856 9857 28
7886 9856 9858 28
7887 9856 9859 28
7888 9856 9860 28
7889 9861 9862 28
7890 9861 9863 28
7891 9861 9864 28
7892 9861 9865 28
7893 9866 9867 28
7894 9866 9868 28
7895 9866 9869 28
7896 9866 9870 28
7897 9871 9872 28
7898 9871 9873 28
7899 9871 9874 28
7900 9871 9875 28
7901 9876 9877 28
7902 9876 9878 28
7903 9876 9879 28
7904 9876 9880 28
7905 9881 9882 28
7906 9881 9883 28
7907 9881 9884 28
7908 9881 9885 28
7909 9886 9887 28
7910 9886 9888 28
7911 9886 9889 28
7912 9886 9890 28
7913 9891 9892 28
7914 9891 9893 28
7915 9891 9894 28
7916 9891 9895 28
7917 9896 9897 28
7918 9896 9898 28
7919 9896 9899 28
7920 9896 9900 28
7921 9901 9902 28
7922 9901 9903 28
7923 9901 9904 28
7924 9901 9905 28
7925 9906 9907 28
7926 9906 9908 28
7927 9906 9909 28
7928 9906 9910 28
7929 9911 9912 28
7930 9911 9913 28
7931 9911 9914 28
7932 9911 9915 28
7933 9916 9917 28
7934 9916 9918 28
7935 9916 9919 28
7936 9916 9920 28
7937 9921 9922 28
7938 9921 9923 28
7939 9921 9924 28
7940 9921 9925 28
7941 9926 9927 28
7942 9926 9928 28
7943 9926 9929 28
7944 9926 9930 28
7945 9931 9932 28
7946 9931 9933 28
7947 9931 9934 28
7948 9931 9935 28
7949 9936 9937 28
7950 9936 9938 28
7951 9936 9939 28
7952 9936 9940 28
7953 9941 9942 28
7954 9941 9943 28
7955 9941 9944 28
7956 9941 9945 28
7957 9946 9947 28
7958 9946 9948 28
7959 9946 9949 28
7960 9946 9950 28
7961 9951 9952 28
7962 9951 9953 28
7963 9951 9954 28
7964 9951 9955 28
7965 9956 9957 28
7966 9956 9958 28
7967 9956 9959 28
7968 9956 9960 28
7969 9961 9962 28
7970 9961 9963 28
7971 9961 9964 28
7972 9961 9965 28
7973 9966 9967 28
7974 9966 9968 28
7975 9966 9969 28
7976 9966 9970 28
7977 9971 9972 28
7978 9971 9973 28
7979 9971 9974 28
7980 9971 9975 28
7981 9976 9977 28
7982 9976 9978 28
7983 9976 9979 28
7984 9976 9980 28
7985 9981 9982 28
7986 9981 9983 28
7987 9981 9984 28
7988 9981 9985 28
7989 9986 9987 28
7990 9986 9988 28
7991 9986 9989 28
7992 9986 9990 28
7993 9991 9992 28
7994 9991 9993 28
7995 9991 9994 28
7996 9991 9995 28
7997 9996 9997 28
7998 9996 9998 28
7999 9996 9999 28
8000 9996 10000 28
8001 10001 10002 28
8002 10001 10003 28
8003 10001 10004 28
8004 10001 10005 28
8005 10006 10007 28
8006 10006 10008 28
8007 10006 10009 28
8008 10006 10010 28
8009 10011 10012 28
8010 10011 10013 28
8011 10011 10014 28
8012 10011 10015 28
8013 10016 10017 28
8014 10016 10018 28
8015 10016 10019 28
8016 10016 10020 28
8017 10021 10022 28
8018 10021 10023 28
8019 10021 10024 28
8020 10021 10025 28
8021 10026 10027 28
8022 10026 10028 28
8023 10026 10029 28
8024 10026 10030 28
8025 10031 10032 28
8026 10031 10033 28
8027 10031 10034 28
8028 10031 10035 28
8029 10036 10037 28
8030 10036 10038 28
8031 10036 10039 28
8032 10036 10040 28
8033 10041 10042 28
8034 10041 10043 28
8035 10041 10044 28
8036 10041 10045 28
8037 10046 10047 28
8038 10046 10048 28
8039 10046 10049 28
8040 10046 10050 28
8041 10051 10052 28
8042 10051 10053 28
8043 10051 10054 28
8044 10051 10055 28
8045 10056 10057 28
8046 10056 10058 28
8047 10056 10059 28
8048 10056 10060 28
8049 10061 10062 28
8050 10061 10063 28
8051 10061 10064 28
8052 10061 10065 28
8053 10066 10067 28
8054 10066 10068 28
8055 10066 10069 28
8056 10066 10070 28
8057 10071 10072 28
8058 10071 10073 28
8059 10071 10074 28
8060 10071 10075 28
8061 10076 10077 28
8062 10076 10078 28
8063 10076 10079 28
8064 10076 10080 28
8065 10081 10082 28
8066 10081 10083 28
8067 10081 10084 28
8068 10081 10085 28
8069 10086 10087 28
8070 10086 10088 28
8071 10086 10089 28
8072 10086 10090 28
8073 10091 10092 28
8074 10091 10093 28
8075 10091 10094 28
8076 10091 10095 28
8077 10096 10097 28
8078 10096 10098 28
8079 10096 10099 28
8080 10096 10100 28
8081 10101 10102 28
8082 10101 10103 28
8083 10101 10104 28
8084 10101 10105 28
8085 10106 10107 28
8086 10106 10108 28
8087 10106 10109 28
8088 10106 10110 28
8089 10111 10112 28
8090 10111 10113 28
8091 10111 10114 28
8092 10111 10115 28
8093 10116 10117 28
8094 10116 10118 28
8095 10116 10119 28
8096 10116 10120 28
8097 10121 10122 28
8098 10121 10123 28
8099 10121 10124 28
8100 10121 10125 28
8101 10126 10127 28
8102 10126 10128 28
8103 10126 10129 28
8104 10126 10130 28
8105 10131 10132 28
8106 10131 10133 28
8107 10131 10134 28
8108 10131 10135 28
8109 10136 10137 28
8110 10136 10138 28
8111 10136 10139 28
8112 10136 10140 28
8113 10141 10142 28
8114 10141 10143 28
8115 10141 10144 28
8116 10141 10145 28
8117 10146 10147 28
8118 10146 10148 28
8119 10146 10149 28
8120 10146 10150 28
8121 10151 10152 28
8122 10151 10153 28
8123 10151 10154 28
8124 10151 10155 28
8125 10156 10157 28
8126 10156 10158 28
8127 10156 10159 28
8128 10156 10160 28
8129 10161 10162 28
8130 10161 10163 28
8131 10161 10164 28
8132 10161 10165 28
8133 10166 10167 28
8134 10166 10168 28
8135 10166 10169 28
8136 10166 10170 28
8137 10171 10172 28
8138 10171 10173 28
8139 10171 10174 28
8140 10171 10175 28
8141 10176 10177 28
8142 10176 10178 28
8143 10176 10179 28
8144 10176 10180 28
8145 10181 10182 28
8146 10181 10183 28
8147 10181 10184 28
8148 10181 10185 28
8149 10186 10187 28
8150 10186 10188 28
8151 10186 10189 28
8152 10186 10190 28
8153 10191 10192 28
8154 10191 10193 28
8155 10191 10194 28
8156 10191 10195 28
8157 10196 10197 28
8158 10196 10198 28
8159 10196 10199 28
8160 10196 10200 28
8161 10201 10202 28
8162 10201 10203 28
8163 10201 10204 28
8164 10201 10205 28
8165 10206 10207 28
8166 10206 10208 28
8167 10206 10209 28
8168 10206 10210 28
8169 10211 10212 28
8170 10211 10213 28
8171 10211 10214 28
8172 10211 10215 28
8173 10216 10217 28
8174 10216 10218 28
8175 10216 10219 28
8176 10216 10220 28
8177 10221 10222 28
8178 10221 10223 28
8179 10221 10224 28
8180 10221 10225 28
8181 10226 10227 28
8182 10226 10228 28
8183 10226 10229 28
8184 10226 10230 28
8185 10231 10232 28
8186 10231 10233 28
8187 10231 10234 28
8188 10231 10235 28
8189 10236 10237 28
8190 10236 10238 28
8191 10236 10239 28
8192 10236 10240 28
8193 10241 10242 28
8194 10241 10243 28
8195 10241 10244 28
8196 10241 10245 28
8197 10246 10247 28
8198 10246 10248 28
8199 10246 10249 28
8200 10246 10250 28
8201 10251 10252 28
8202 10251 10253 28
8203 10251 10254 28
8204 10251 10255 28
8205 10256 10257 28
8206 10256 10258 28
8207 10256 10259 28
8208 10256 10260 28
8209 10261 10262 28
8210 10261 10263 28
8211 10261 10264 28
8212 10261 10265 28
8213 10266 10267 28
8214 10266 10268 28
8215 10266 10269 28
8216 10266 10270 28
8217 10271 10272 28
8218 10271 10273 28
8219 10271 10274 28
8220 10271 10275 28
8221 10276 10277 28
8222 10276 10278 28
8223 10276 10279 28
8224 10276 10280 28
8225 10281 10282 28
8226 10281 10283 28
8227 10281 10284 28
8228 10281 10285 28
8229 10286 10287 28
8230 10286 10288 28
8231 10286 10289 28
8232 10286 10290 28
8233 10291 10292 28
8234 10291 10293 28
8235 10291 10294 28
8236 10291 10295 28
8237 10296 10297 28
8238 10296 10298 28
8239 10296 10299 28
8240 10296 10300 28
8241 10301 10302 28
8242 10301 10303 28
8243 10301 10304 28
8244 10301 10305 28
8245 10306 10307 28
8246 10306 10308 28
8247 10306 10309 28
8248 10306 10310 28
8249 10311 10312 28
8250 10311 10313 28
8251 10311 10314 28
8252 10311 10315 28
8253 10316 10317 28
8254 10316 10318 28
8255 10316 10319 28
8256 10316 10320 28
8257 10321 10322 28
8258 10321 10323 28
8259 10321 10324 28
8260 10321 10325 28
8261 10326 10327 28
8262 10326 10328 28
8263 10326 10329 28
8264 10326 10330 28
8265 10331 10332 28
8266 10331 10333 28
8267 10331 10334 28
8268 10331 10335 28
8269 10336 10337 28
8270 10336 10338 28
8271 10336 10339 28
8272 10336 10340 28
8273 10341 10342 28
8274 10341 10343 28
8275 10341 10344 28
8276 10341 10345 28
8277 10346 10347 28
8278 10346 10348 28
8279 10346 10349 28
8280 10346 10350 28
8281 10351 10352 28
8282 10351 10353 28
8283 10351 10354 28
8284 10351 10355 28
8285 10356 10357 28
8286 10356 10358 28
8287 10356 10359 28
8288 10356 10360 28
8289 10361 10362 28
8290 10361 10363 28
8291 10361 10364 28
8292 10361 10365 28
8293 10366 10367 28
8294 10366 10368 28
8295 10366 10369 28
8296 10366 10370 28
8297 10371 10372 28
8298 10371 10373 28
8299 10371 10374 28
8300 10371 10375 28
8301 10376 10377 28
8302 10376 10378 28
8303 10376 10379 28
8304 10376 10380 28
8305 10381 10382 28
8306 10381 10383 28
8307 10381 10384 28
8308 10381 10385 28
8309 10386 10387 28
8310 10386 10388 28
8311 10386 10389 28
8312 10386 10390 28
8313 10391 10392 28
8314 10391 10393 28
8315 10391 10394 28
8316 10391 10395 28
8317 10396 10397 28
8318 10396 10398 28
8319 10396 10399 28
8320 10396 10400 28
8321 10401 10402 28
8322 10401 10403 28
8323 10401 10404 28
8324 10401 10405 28
8325 10406 10407 28
8326 10406 10408 28
8327 10406 10409 28
8328 10406 10410 28
8329 10411 10412 28
8330 10411 10413 28
8331 10411 10414 28
8332 10411 10415 28
8333 10416 10417 28
8334 10416 10418 28
8335 10416 10419 28
8336 10416 10420 28
8337 10421 10422 28
8338 10421 10423 28
8339 10421 10424 28
8340 10421 10425 28
8341 10426 10427 28
8342 10426 10428 28
8343 10426 10429 28
8344 10426 10430 28
8345 10431 10432 28
8346 10431 10433 28
8347 10431 10434 28
8348 10431 10435 28
8349 10436 10437 28
8350 10436 10438 28
8351 10436 10439 28
8352 10436 10440 28
8353 10441 10442 28
8354 10441 10443 28
8355 10441 10444 28
8356 10441 10445 28
8357 10446 10447 28
8358 10446 10448 28
8359 10446 10449 28
8360 10446 10450 28
8361 10451 10452 28
8362 10451 10453 28
8363 10451 10454 28
8364 10451 10455 28
8365 10456 10457 28
8366 10456 10458 28
8367 10456 10459 28
8368 10456 10460 28
8369 10461 10462 28
8370 10461 10463 28
8371 10461 10464 28
8372 10461 10465 28
8373 10466 10467 28
8374 10466 10468 28
8375 10466 10469 28
8376 10466 10470 28
8377 10471 10472 28
8378 10471 10473 28
8379 10471 10474 28
8380 10471 10475 28
8381 10476 10477 28
8382 10476 10478 28
8383 10476 10479 28
8384 10476 10480 28
8385 10481 10482 28
8386 10481 10483 28
8387 10481 10484 28
8388 10481 10485 28
8389 10486 10487 28
8390 10486 10488 28
8391 10486 10489 28
8392 10486 10490 28
8393 10491 10492 28
8394 10491 10493 28
8395 10491 10494 28
8396 10491 10495 28
8397 10496 10497 28
8398 10496 10498 28
8399 10496 10499 28
8400 10496 10500 28
8401 10501 10502 28
8402 10501 10503 28
8403 10501 10504 28
8404 10501 10505 28
8405 10506 10507 28
8406 10506 10508 28
8407 10506 10509 28
8408 10506 10510 28
8409 10511 10512 28
8410 10511 10513 28
8411 10511 10514 28
8412 10511 10515 28
8413 10516 10517 28
8414 10516 10518 28
8415 10516 10519 28
8416 10516 10520 28
8417 10521 10522 28
8418 10521 10523 28
8419 10521 10524 28
8420 10521 10525 28
8421 10526 10527 28
8422 10526 10528 28
8423 10526 10529 28
8424 10526 10530 28
8425 10531 10532 28
8426 10531 10533 28
8427 10531 10534 28
8428 10531 10535 28
8429 10536 10537 28
8430 10536 10538 28
8431 10536 10539 28
8432 10536 10540 28
8433 10541 10542 28
8434 10541 10543 28
8435 10541 10544 28
8436 10541 10545 28
8437 10546 10547 28
8438 10546 10548 28
8439 10546 10549 28
8440 10546 10550 28
8441 10551 10552 28
8442 10551 10553 28
8443 10551 10554 28
8444 10551 10555 28
8445 10556 10557 28
8446 10556 10558 28
8447 10556 10559 28
8448 10556 10560 28
8449 10561 10562 28
8450 10561 10563 28
8451 10561 10564 28
8452 10561 10565 28
8453 10566 10567 28
8454 10566 10568 28
8455 10566 10569 28
8456 10566 10570 28
8457 10571 10572 28
8458 10571 10573 28
8459 10571 10574 28
8460 10571 10575 28
8461 10576 10577 28
8462 10576 10578 28
8463 10576 10579 28
8464 10576 10580 28
8465 10581 10582 28
8466 10581 10583 28
8467 10581 10584 28
8468 10581 10585 28
8469 10586 10587 28
8470 10586 10588 28
8471 10586 10589 28
8472 10586 10590 28
8473 10591 10592 28
8474 10591 10593 28
8475 10591 10594 28
8476 10591 10595 28
8477 10596 10597 28
8478 10596 10598 28
8479 10596 10599 28
8480 10596 10600 28
8481 10601 10602 28
8482 10601 10603 28
8483 10601 10604 28
8484 10601 10605 28
8485 10606 10607 28
8486 10606 10608 28
8487 10606 10609 28
8488 10606 10610 28
8489 10611 10612 28
8490 10611 10613 28
8491 10611 10614 28
8492 10611 10615 28
8493 10616 10617 28
8494 10616 10618 28
8495 10616 10619 28
8496 10616 10620 28
8497 10621 10622 28
8498 10621 10623 28
8499 10621 10624 28
8500 10621 10625 28
8501 10626 10627 28
8502 10626 10628 28
8503 10626 10629 28
8504 10626 10630 28
8505 10631 10632 28
8506 10631 10633 28
8507 10631 10634 28
8508 10631 10635 28
8509 10636 10637 28
8510 10636 10638 28
8511 10636 10639 28
8512 10636 10640 28
8513 10641 10642 28
8514 10641 10643 28
8515 10641 10644 28
8516 10641 10645 28
8517 10646 10647 28
8518 10646 10648 28
8519 10646 10649 28
8520 10646 10650 28
8521 10651 10652 28
8522 10651 10653 28
8523 10651 10654 28
8524 10651 10655 28
8525 10656 10657 28
8526 10656 10658 28
8527 10656 10659 28
8528 10656 10660 28
8529 10661 10662 28
8530 10661 10663 28
8531 10661 10664 28
8532 10661 10665 28
8533 10666 10667 28
8534 10666 10668 28
8535 10666 10669 28
8536 10666 10670 28
8537 10671 10672 28
8538 10671 10673 28
8539 10671 10674 28
8540 10671 10675 28
8541 10676 10677 28
8542 10676 10678 28
8543 10676 10679 28
8544 10676 10680 28
8545 10681 10682 28
8546 10681 10683 28
8547 10681 10684 28
8548 10681 10685 28
8549 10686 10687 28
8550 10686 10688 28
8551 10686 10689 28
8552 10686 10690 28
8553 10691 10692 28
8554 10691 10693 28
8555 10691 10694 28
8556 10691 10695 28
8557 10696 10697 28
8558 10696 10698 28
8559 10696 10699 28
8560 10696 10700 28
8561 10701 10702 28
8562 10701 10703 28
8563 10701 10704 28
8564 10701 10705 28
8565 10706 10707 28
8566 10706 10708 28
8567 10706 10709 28
8568 10706 10710 28
8569 10711 10712 28
8570 10711 10713 28
8571 10711 10714 28
8572 10711 10715 28
8573 10716 10717 28
8574 10716 10718 28
8575 10716 10719 28
8576 10716 10720 28
8577 10721 10722 28
8578 10721 10723 28
8579 10721 10724 28
8580 10721 10725 28
8581 10726 10727 28
8582 10726 10728 28
8583 10726 10729 28
8584 10726 10730 28
8585 10731 10732 28
8586 10731 10733 28
8587 10731 10734 28
8588 10731 10735 28
8589 10736 10737 28
8590 10736 10738 28
8591 10736 10739 28
8592 10736 10740 28
8593 10741 10742 28
8594 10741 10743 28
8595 10741 10744 28
8596 10741 10745 28
8597 10746 10747 28
8598 10746 10748 28
8599 10746 10749 28
8600 10746 10750 28
8601 10751 10752 28
8602 10751 10753 28
8603 10751 10754 28
8604 10751 10755 28
8605 10756 10757 28
8606 10756 10758 28
8607 10756 10759 28
8608 10756 10760 28
8609 10761 10762 28
8610 10761 10763 28
8611 10761 10764 28
8612 10761 10765 28
8613 10766 10767 28
8614 10766 10768 28
8615 10766 10769 28
8616 10766 10770 28
8617 10771 10772 28
8618 10771 10773 28
8619 10771 10774 28
8620 10771 10775 28
8621 10776 10777 28
8622 10776 10778 28
8623 10776 10779 28
8624 10776 10780 28
8625 10781 10782 28
8626 10781 10783 28
8627 10781 10784 28
8628 10781 10785 28
8629 10786 10787 28
8630 10786 10788 28
8631 10786 10789 28
8632 10786 10790 28
8633 10791 10792 28
8634 10791 10793 28
8635 10791 10794 28
8636 10791 10795 28
8637 10796 10797 28
8638 10796 10798 28
8639 10796 10799 28
8640 10796 10800 28
8641 10801 10802 28
8642 10801 10803 28
8643 10801 10804 28
8644 10801 10805 28
8645 10806 10807 28
8646 10806 10808 28
8647 10806 10809 28
8648 10806 10810 28
8649 10811 10812 28
8650 10811 10813 28
8651 10811 10814 28
8652 10811 10815 28
8653 10816 10817 28
8654 10816 10818 28
8655 10816 10819 28
8656 10816 10820 28
8657 10821 10822 28
8658 10821 10823 28
8659 10821 10824 28
8660 10821 10825 28
8661 10826 10827 28
8662 10826 10828 28
8663 10826 10829 28
8664 10826 10830 28
8665 10831 10832 28
8666 10831 10833 28
8667 10831 10834 28
8668 10831 10835 28
8669 10836 10837 28
8670 10836 10838 28
8671 10836 10839 28
8672 10836 10840 28
8673 10841 10842 28
8674 10841 10843 28
8675 10841 10844 28
8676 10841 10845 28
8677 10846 10847 28
8678 10846 10848 28
8679 10846 10849 28
8680 10846 10850 28
8681 10851 10852 28
8682 10851 10853 28
8683 10851 10854 28
8684 10851 10855 28
8685 10856 10857 28
8686 10856 10858 28
8687 10856 10859 28
8688 10856 10860 28
8689 10861 10862 28
8690 10861 10863 28
8691 10861 10864 28
8692 10861 10865 28
8693 10866 10867 28
8694 10866 10868 28
8695 10866 10869 28
8696 10866 10870 28
8697 10871 10872 28
8698 10871 10873 28
8699 10871 10874 28
8700 10871 10875 28
8701 10876 10877 28
8702 10876 10878 28
8703 10876 10879 28
8704 10876 10880 28
8705 10881 10882 28
8706 10881 10883 28
8707 10881 10884 28
8708 10881 10885 28
8709 10886 10887 28
8710 10886 10888 28
8711 10886 10889 28
8712 10886 10890 28
8713 10891 10892 28
8714 10891 10893 28
8715 10891 10894 28
8716 10891 10895 28
8717 10896 10897 28
8718 10896 10898 28
8719 10896 10899 28
8720 10896 10900 28
8721 10901 10902 28
8722 10901 10903 28
8723 10901 10904 28
8724 10901 10905 28
8725 10906 10907 28
8726 10906 10908 28
8727 10906 10909 28
8728 10906 10910 28
8729 10911 10912 28
8730 10911 10913 28
8731 10911 10914 28
8732 10911 10915 28
8733 10916 10917 28
8734 10916 10918 28
8735 10916 10919 28
8736 10916 10920 28
8737 10921 10922 28
8738 10921 10923 28
8739 10921 10924 28
8740 10921 10925 28
8741 10926 10927 28
8742 10926 10928 28
8743 10926 10929 28
8744 10926 10930 28
8745 10931 10932 28
8746 10931 10933 28
8747 10931 10934 28
8748 10931 10935 28
8749 10936 10937 28
8750 10936 10938 28
8751 10936 10939 28
8752 10936 10940 28
8753 10941 10942 28
8754 10941 10943 28
8755 10941 10944 28
8756 10941 10945 28
8757 10946 10947 28
8758 10946 10948 28
8759 10946 10949 28
8760 10946 10950 28
8761 10951 10952 28
8762 10951 10953 28
8763 10951 10954 28
8764 10951 10955 28
8765 10956 10957 28
8766 10956 10958 28
8767 10956 10959 28
8768 10956 10960 28
8769 10961 10962 28
8770 10961 10963 28
8771 10961 10964 28
8772 10961 10965 28
8773 10966 10967 28
8774 10966 10968 28
8775 10966 10969 28
8776 10966 10970 28
8777 10971 10972 28
8778 10971 10973 28
8779 10971 10974 28
8780 10971 10975 28
8781 10976 10977 28
8782 10976 10978 28
8783 10976 10979 28
8784 10976 10980 28
8785 10981 10982 28
8786 10981 10983 28
8787 10981 10984 28
8788 10981 10985 28
8789 10986 10987 28
8790 10986 10988 28
8791 10986 10989 28
8792 10986 10990 28
8793 10991 10992 28
8794 10991 10993 28
8795 10991 10994 28
8796 10991 10995 28
8797 10996 10997 28
8798 10996 10998 28
8799 10996 10999 28
8800 10996 11000 28
8801 11001 11002 28
8802 11001 11003 28
8803 11001 11004 28
8804 11001 11005 28
8805 11006 11007 28
8806 11006 11008 28
8807 11006 11009 28
8808 11006 11010 28
8809 11011 11012 28
8810 11011 11013 28
8811 11011 11014 28
8812 11011 11015 28
8813 11016 11017 28
8814 11016 11018 28
8815 11016 11019 28
8816 11016 11020 28
8817 11021 11022 28
8818 11021 11023 28
8819 11021 11024 28
8820 11021 11025 28
8821 11026 11027 28
8822 11026 11028 28
8823 11026 11029 28
8824 11026 11030 28
8825 11031 11032 28
8826 11031 11033 28
8827 11031 11034 28
8828 11031 11035 28
8829 11036 11037 28
8830 11036 11038 28
8831 11036 11039 28
8832 11036 11040 28
8833 11041 11042 28
8834 11041 11043 28
8835 11041 11044 28
8836 11041 11045 28
8837 11046 11047 28
8838 11046 11048 28
8839 11046 11049 28
8840 11046 11050 28
8841 11051 11052 28
8842 11051 11053 28
8843 11051 11054 28
8844 11051 11055 28
8845 11056 11057 28
8846 11056 11058 28
8847 11056 11059 28
8848 11056 11060 28
8849 11061 11062 28
8850 11061 11063 28
8851 11061 11064 28
8852 11061 11065 28
8853 11066 11067 28
8854 11066 11068 28
8855 11066 11069 28
8856 11066 11070 28
8857 11071 11072 28
8858 11071 11073 28
8859 11071 11074 28
8860 11071 11075 28
8861 11076 11077 28
8862 11076 11078 28
8863 11076 11079 28
8864 11076 11080 28
8865 11081 11082 28
8866 11081 11083 28
8867 11081 11084 28
8868 11081 11085 28
8869 11086 11087 28
8870 11086 11088 28
8871 11086 11089 28
8872 11086 11090 28
8873 11091 11092 28
8874 11091 11093 28
8875 11091 11094 28
8876 11091 11095 28
8877 11096 11097 28
8878 11096 11098 28
8879 11096 11099 28
8880 11096 11100 28
8881 11101 11102 28
8882 11101 11103 28
8883 11101 11104 28
8884 11101 11105 28
8885 11106 11107 28
8886 11106 11108 28
8887 11106 11109 28
8888 11106 11110 28
8889 11111 11112 28
8890 11111 11113 28
8891 11111 11114 28
8892 11111 11115 28
8893 11116 11117 28
8894 11116 11118 28
8895 11116 11119 28
8896 11116 11120 28
8897 11121 11122 28
8898 11121 11123 28
8899 11121 11124 28
8900 11121 11125 28
8901 11126 11127 28
8902 11126 11128 28
8903 11126 11129 28
8904 11126 11130 28
8905 11131 11132 28
8906 11131 11133 28
8907 11131 11134 28
8908 11131 11135 28
8909 11136 11137 28
8910 11136 11138 28
8911 11136 11139 28
8912 11136 11140 28
8913 11141 11142 28
8914 11141 11143 28
8915 11141 11144 28
8916 11141 11145 28
8917 11146 11147 28
8918 11146 11148 28
8919 11146 11149 28
8920 11146 11150 28
8921 11151 11152 28
8922 11151 11153 28
8923 11151 11154 28
8924 11151 11155 28
8925 11156 11157 28
8926 11156 11158 28
8927 11156 11159 28
8928 11156 11160 28
8929 11161 11162 28
8930 11161 11163 28
8931 11161 11164 28
8932 11161 11165 28
8933 11166 11167 28
8934 11166 11168 28
8935 11166 11169 28
8936 11166 11170 28
8937 11171 11172 28
8938 11171 11173 28
8939 11171 11174 28
8940 11171 11175 28
8941 11176 11177 28
8942 11176 11178 28
8943 11176 11179 28
8944 11176 11180 28
8945 11181 11182 28
8946 11181 11183 28
8947 11181 11184 28
8948 11181 11185 28
8949 11186 11187 28
8950 11186 11188 28
8951 11186 11189 28
8952 11186 11190 28
8953 11191 11192 28
8954 11191 11193 28
8955 11191 11194 28
8956 11191 11195 28
8957 11196 11197 28
8958 11196 11198 28
8959 11196 11199 28
8960 11196 11200 28
8961 11201 11202 28
8962 11201 11203 28
8963 11201 11204 28
8964 11201 11205 28
8965 11206 11207 28
8966 11206 11208 28
8967 11206 11209 28
8968 11206 11210 28
8969 11211 11212 28
8970 11211 11213 28
8971 11211 11214 28
8972 11211 11215 28
8973 11216 11217 28
8974 11216 11218 28
8975 11216 11219 28
8976 11216 11220 28
8977 11221 11222 28
8978 11221 11223 28
8979 11221 11224 28
8980 11221 11225 28
8981 11226 11227 28
8982 11226 11228 28
8983 11226 11229 28
8984 11226 11230 28
8985 11231 11232 28
8986 11231 11233 28
8987 11231 11234 28
8988 11231 11235 28
8989 11236 11237 28
8990 11236 11238 28
8991 11236 11239 28
8992 11236 11240 28
8993 11241 11242 28
8994 11241 11243 28
8995 11241 11244 28
8996 11241 11245 28
8997 11246 11247 28
8998 11246 11248 28
8999 11246 11249 28
9000 11246 11250 28
9001 11251 11252 28
9002 11251 11253 28
9003 11251 11254 28
9004 11251 11255 28
9005 11256 11257 28
9006 11256 11258 28
9007 11256 11259 28
9008 11256 11260 28
9009 11261 11262 28
9010 11261 11263 28
9011 11261 11264 28
9012 11261 11265 28
9013 11266 11267 28
9014 11266 11268 28
9015 11266 11269 28
9016 11266 11270 28
9017 11271 11272 28
9018 11271 11273 28
9019 11271 11274 28
9020 11271 11275 28
9021 11276 11277 28
9022 11276 11278 28
9023 11276 11279 28
9024 11276 11280 28
9025 11281 11282 28
9026 11281 11283 28
9027 11281 11284 28
9028 11281 11285 28
9029 11286 11287 28
9030 11286 11288 28
9031 11286 11289 28
9032 11286 11290 28
9033 11291 11292 28
9034 11291 11293 28
9035 11291 11294 28
9036 11291 11295 28
9037 11296 11297 28
9038 11296 11298 28
9039 11296 11299 28
9040 11296 11300 28
9041 11301 11302 28
9042 11301 11303 28
9043 11301 11304 28
9044 11301 11305 28
9045 11306 11307 28
9046 11306 11308 28
9047 11306 11309 28
9048 11306 11310 28
9049 11311 11312 28
9050 11311 11313 28
9051 11311 11314 28
9052 11311 11315 28
9053 11316 11317 28
9054 11316 11318 28
9055 11316 11319 28
9056 11316 11320 28
9057 11321 11322 28
9058 11321 11323 28
9059 11321 11324 28
9060 11321 11325 28
9061 11326 11327 28
9062 11326 11328 28
9063 11326 11329 28
9064 11326 11330 28
9065 11331 11332 28
9066 11331 11333 28
9067 11331 11334 28
9068 11331 11335 28
9069 11336 11337 28
9070 11336 11338 28
9071 11336 11339 28
9072 11336 11340 28
9073 11341 11342 28
9074 11341 11343 28
9075 11341 11344 28
9076 11341 11345 28
9077 11346 11347 28
9078 11346 11348 28
9079 11346 11349 28
9080 11346 11350 28
9081 11351 11352 28
9082 11351 11353 28
9083 11351 11354 28
9084 11351 11355 28
9085 11356 11357 28
9086 11356 11358 28
9087 11356 11359 28
9088 11356 11360 28
9089 11361 11362 28
9090 11361 11363 28
9091 11361 11364 28
9092 11361 11365 28
9093 11366 11367 28
9094 11366 11368 28
9095 11366 11369 28
9096 11366 11370 28
9097 11371 11372 28
9098 11371 11373 28
9099 11371 11374 28
9100 11371 11375 28
9101 11376 11377 28
9102 11376 11378 28
9103 11376 11379 28
9104 11376 11380 28
9105 11381 11382 28
9106 11381 11383 28
9107 11381 11384 28
9108 11381 11385 28
9109 11386 11387 28
9110 11386 11388 28
9111 11386 11389 28
9112 11386 11390 28
9113 11391 11392 28
9114 11391 11393 28
9115 11391 11394 28
9116 11391 11395 28
9117 11396 11397 28
9118 11396 11398 28
9119 11396 11399 28
9120 11396 11400 28
9121 11401 11402 28
9122 11401 11403 28
9123 11401 11404 28
9124 11401 11405 28
9125 11406 11407 28
9126 11406 11408 28
9127 11406 11409 28
9128 11406 11410 28
9129 11411 11412 28
9130 11411 11413 28
9131 11411 11414 28
9132 11411 11415 28
9133 11416 11417 28
9134 11416 11418 28
9135 11416 11419 28
9136 11416 11420 28
9137 11421 11422 28
9138 11421 11423 28
9139 11421 11424 28
9140 11421 11425 28
9141 11426 11427 28
9142 11426 11428 28
9143 11426 11429 28
9144 11426 11430 28
9145 11431 11432 28
9146 11431 11433 28
9147 11431 11434 28
9148 11431 11435 28
9149 11436 11437 28
9150 11436 11438 28
9151 11436 11439 28
9152 11436 11440 28
9153 11441 11442 28
9154 11441 11443 28
9155 11441 11444 28
9156 11441 11445 28
9157 11446 11447 28
9158 11446 11448 28
9159 11446 11449 28
9160 11446 11450 28
9161 11451 11452 28
9162 11451 11453 28
9163 11451 11454 28
9164 11451 11455 28
9165 11456 11457 28
9166 11456 11458 28
9167 11456 11459 28
9168 11456 11460 28
9169 11461 11462 28
9170 11461 11463 28
9171 11461 11464 28
9172 11461 11465 28
9173 11466 11467 28
9174 11466 11468 28
9175 11466 11469 28
9176 11466 11470 28
9177 11471 11472 28
9178 11471 11473 28
9179 11471 11474 28
9180 11471 11475 28
9181 11476 11477 28
9182 11476 11478 28
9183 11476 11479 28
9184 11476 11480 28
9185 11481 11482 28
9186 11481 11483 28
9187 11481 11484 28
9188 11481 11485 28
9189 11486 11487 28
9190 11486 11488 28
9191 11486 11489 28
9192 11486 11490 28
9193 11491 11492 28
9194 11491 11493 28
9195 11491 11494 28
9196 11491 11495 28
9197 11496 11497 28
9198 11496 11498 28
9199 11496 11499 28
9200 11496 11500 28
9201 11501 11502 28
9202 11501 11503 28
9203 11501 11504 28
9204 11501 11505 28
9205 11506 11507 28
9206 11506 11508 28
9207 11506 11509 28
9208 11506 11510 28
9209 11511 11512 28
9210 11511 11513 28
9211 11511 11514 28
9212 11511 11515 28
9213 11516 11517 28
9214 11516 11518 28
9215 11516 11519 28
9216 11516 11520 28
9217 11521 11522 28
9218 11521 11523 28
9219 11521 11524 28
9220 11521 11525 28
9221 11526 11527 28
9222 11526 11528 28
9223 11526 11529 28
9224 11526 11530 28
9225 11531 11532 28
9226 11531 11533 28
9227 11531 11534 28
9228 11531 11535 28
9229 11536 11537 28
9230 11536 11538 28
9231 11536 11539 28
9232 11536 11540 28
9233 11541 11542 28
9234 11541 11543 28
9235 11541 11544 28
9236 11541 11545 28
9237 11546 11547 28
9238 11546 11548 28
9239 11546 11549 28
9240 11546 11550 28
9241 11551 11552 28
9242 11551 11553 28
9243 11551 11554 28
9244 11551 11555 28
9245 11556 11557 28
9246 11556 11558 28
9247 11556 11559 28
9248 11556 11560 28
9249 11561 11562 28
9250 11561 11563 28
9251 11561 11564 28
9252 11561 11565 28
9253 11566 11567 28
9254 11566 11568 28
9255 11566 11569 28
9256 11566 11570 28
9257 11571 11572 28
9258 11571 11573 28
9259 11571 11574 28
9260 11571 11575 28
9261 11576 11577 28
9262 11576 11578 28
9263 11576 11579 28
9264 11576 11580 28
9265 11581 11582 28
9266 11581 11583 28
9267 11581 11584 28
9268 11581 11585 28
9269 11586 11587 28
9270 11586 11588 28
9271 11586 11589 28
9272 11586 11590 28
9273 11591 11592 28
9274 11591 11593 28
9275 11591 11594 28
9276 11591 11595 28
9277 11596 11597 28
9278 11596 11598 28
9279 11596 11599 28
9280 11596 11600 28
9281 11601 11602 28
9282 11601 11603 28
9283 11601 11604 28
9284 11601 11605 28
9285 11606 11607 28
9286 11606 11608 28
9287 11606 11609 28
9288 11606 11610 28
9289 11611 11612 28
9290 11611 11613 28
9291 11611 11614 28
9292 11611 11615 28
9293 11616 11617 28
9294 11616 11618 28
9295 11616 11619 28
9296 11616 11620 28
9297 11621 11622 28
9298 11621 11623 28
9299 11621 11624 28
9300 11621 11625 28
9301 11626 11627 28
9302 11626 11628 28
9303 11626 11629 28
9304 11626 11630 28
9305 11631 11632 28
9306 11631 11633 28
9307 11631 11634 28
9308 11631 11635 28
9309 11636 11637 28
9310 11636 11638 28
9311 11636 11639 28
9312 11636 11640 28
9313 11641 11642 28
9314 11641 11643 28
9315 11641 11644 28
9316 11641 11645 28
9317 11646 11647 28
9318 11646 11648 28
9319 11646 11649 28
9320 11646 11650 28
9321 11651 11652 28
9322 11651 11653 28
9323 11651 11654 28
9324 11651 11655 28
9325 11656 11657 28
9326 11656 11658 28
9327 11656 11659 28
9328 11656 11660 28
9329 11661 11662 28
9330 11661 11663 28
9331 11661 11664 28
9332 11661 11665 28
9333 11666 11667 28
9334 11666 11668 28
9335 11666 11669 28
9336 11666 11670 28
9337 11671 11672 28
9338 11671 11673 28
9339 11671 11674 28
9340 11671 11675 28
9341 11676 11677 28
9342 11676 11678 28
9343 11676 11679 28
9344 11676 11680 28
9345 11681 11682 28
9346 11681 11683 28
9347 11681 11684 28
9348 11681 11685 28
9349 11686 11687 28
9350 11686 11688 28
9351 11686 11689 28
9352 11686 11690 28
9353 11691 11692 28
9354 11691 11693 28
9355 11691 11694 28
9356 11691 11695 28
9357 11696 11697 28
9358 11696 11698 28
9359 11696 11699 28
9360 11696 11700 28
9361 11701 11702 28
9362 11701 11703 28
9363 11701 11704 28
9364 11701 11705 28
9365 11706 11707 28
9366 11706 11708 28
9367 11706 11709 28
9368 11706 11710 28
9369 11711 11712 28
9370 11711 11713 28
9371 11711 11714 28
9372 11711 11715 28
9373 11716 11717 28
9374 11716 11718 28
9375 11716 11719 28
9376 11716 11720 28
9377 11721 11722 28
9378 11721 11723 28
9379 11721 11724 28
9380 11721 11725 28
9381 11726 11727 28
9382 11726 11728 28
9383 11726 11729 28
9384 11726 11730 28
9385 11731 11732 28
9386 11731 11733 28
9387 11731 11734 28
9388 11731 11735 28
9389 11736 11737 28
9390 11736 11738 28
9391 11736 11739 28
9392 11736 11740 28
9393 11741 11742 28
9394 11741 11743 28
9395 11741 11744 28
9396 11741 11745 28
9397 11746 11747 28
9398 11746 11748 28
9399 11746 11749 28
9400 11746 11750 28
9401 11751 11752 28
9402 11751 11753 28
9403 11751 11754 28
9404 11751 11755 28
9405 11756 11757 28
9406 11756 11758 28
9407 11756 11759 28
9408 11756 11760 28
9409 11761 11762 28
9410 11761 11763 28
9411 11761 11764 28
9412 11761 11765 28
9413 11766 11767 28
9414 11766 11768 28
9415 11766 11769 28
9416 11766 11770 28
9417 11771 11772 28
9418 11771 11773 28
9419 11771 11774 28
9420 11771 11775 28
9421 11776 11777 28
9422 11776 11778 28
9423 11776 11779 28
9424 11776 11780 28
9425 11781 11782 28
9426 11781 11783 28
9427 11781 11784 28
9428 11781 11785 28
9429 11786 11787 28
9430 11786 11788 28
9431 11786 11789 28
9432 11786 11790 28
9433 11791 11792 28
9434 11791 11793 28
9435 11791 11794 28
9436 11791 11795 28
9437 11796 11797 28
9438 11796 11798 28
9439 11796 11799 28
9440 11796 11800 28
9441 11801 11802 28
9442 11801 11803 28
9443 11801 11804 28
9444 11801 11805 28
9445 11806 11807 28
9446 11806 11808 28
9447 11806 11809 28
9448 11806 11810 28
9449 11811 11812 28
9450 11811 11813 28
9451 11811 11814 28
9452 11811 11815 28
9453 11816 11817 28
9454 11816 11818 28
9455 11816 11819 28
9456 11816 11820 28
9457 11821 11822 28
9458 11821 11823 28
9459 11821 11824 28
9460 11821 11825 28
9461 11826 11827 28
9462 11826 11828 28
9463 11826 11829 28
9464 11826 11830 28
9465 11831 11832 28
9466 11831 11833 28
9467 11831 11834 28
9468 11831 11835 28
9469 11836 11837 28
9470 11836 11838 28
9471 11836 11839 28
9472 11836 11840 28
9473 11841 11842 28
9474 11841 11843 28
9475 11841 11844 28
9476 11841 11845 28
9477 11846 11847 28
9478 11846 11848 28
9479 11846 11849 28
9480 11846 11850 28
9481 11851 11852 28
9482 11851 11853 28
9483 11851 11854 28
9484 11851 11855 28
9485 11856 11857 28
9486 11856 11858 28
9487 11856 11859 28
9488 11856 11860 28
9489 11861 11862 28
9490 11861 11863 28
9491 11861 11864 28
9492 11861 11865 28
9493 11866 11867 28
9494 11866 11868 28
9495 11866 11869 28
9496 11866 11870 28
9497 11871 11872 28
9498 11871 11873 28
9499 11871 11874 28
9500 11871 11875 28
9501 11876 11877 28
9502 11876 11878 28
9503 11876 11879 28
9504 11876 11880 28
9505 11881 11882 28
9506 11881 11883 28
9507 11881 11884 28
9508 11881 11885 28
9509 11886 11887 28
9510 11886 11888 28
9511 11886 11889 28
9512 11886 11890 28
9513 11891 11892 28
9514 11891 11893 28
9515 11891 11894 28
9516 11891 11895 28
9517 11896 11897 28
9518 11896 11898 28
9519 11896 11899 28
9520 11896 11900 28
9521 11901 11902 28
9522 11901 11903 28
9523 11901 11904 28
9524 11901 11905 28
9525 11906 11907 28
9526 11906 11908 28
9527 11906 11909 28
9528 11906 11910 28
9529 11911 11912 28
9530 11911 11913 28
9531 11911 11914 28
9532 11911 11915 28
9533 11916 11917 28
9534 11916 11918 28
9535 11916 11919 28
9536 11916 11920 28
9537 11921 11922 28
9538 11921 11923 28
9539 11921 11924 28
9540 11921 11925 28
9541 11926 11927 28
9542 11926 11928 28
9543 11926 11929 28
9544 11926 11930 28
9545 11931 11932 28
9546 11931 11933 28
9547 11931 11934 28
9548 11931 11935 28
9549 11936 11937 28
9550 11936 11938 28
9551 11936 11939 28
9552 11936 11940 28
9553 11941 11942 28
9554 11941 11943 28
9555 11941 11944 28
9556 11941 11945 28
9557 11946 11947 28
9558 11946 11948 28
9559 11946 11949 28
9560 11946 11950 28
9561 11951 11952 28
9562 11951 11953 28
9563 11951 11954 28
9564 11951 11955 28
9565 11956 11957 28
9566 11956 11958 28
9567 11956 11959 28
9568 11956 11960 28
9569 11961 11962 28
9570 11961 11963 28
9571 11961 11964 28
9572 11961 11965 28
9573 11966 11967 28
9574 11966 11968 28
9575 11966 11969 28
9576 11966 11970 28
9577 11971 11972 28
9578 11971 11973 28
9579 11971 11974 28
9580 11971 11975 28
9581 11976 11977 28
9582 11976 11978 28
9583 11976 11979 28
9584 11976 11980 28
9585 11981 11982 28
9586 11981 11983 28
9587 11981 11984 28
9588 11981 11985 28
9589 11986 11987 28
9590 11986 11988 28
9591 11986 11989 28
9592 11986 11990 28
9593 11991 11992 28
9594 11991 11993 28
9595 11991 11994 28
9596 11991 11995 28
9597 11996 11997 28
9598 11996 11998 28
9599 11996 11999 28
9600 11996 12000 28
9601 12001 12002 28
9602 12001 12003 28
9603 12001 12004 28
9604 12001 12005 28
9605 12006 12007 28
9606 12006 12008 28
9607 12006 12009 28
9608 12006 12010 28
9609 12011 12012 28
9610 12011 12013 28
9611 12011 12014 28
9612 12011 12015 28
9613 12016 12017 28
9614 12016 12018 28
9615 12016 12019 28
9616 12016 12020 28
9617 12021 12022 28
9618 12021 12023 28
9619 12021 12024 28
9620 12021 12025 28
9621 12026 12027 28
9622 12026 12028 28
9623 12026 12029 28
9624 12026 12030 28
9625 12031 12032 28
9626 12031 12033 28
9627 12031 12034 28
9628 12031 12035 28
9629 12036 12037 28
9630 12036 12038 28
9631 12036 12039 28
9632 12036 12040 28
9633 12041 12042 28
9634 12041 12043 28
9635 12041 12044 28
9636 12041 12045 28
9637 12046 12047 28
9638 12046 12048 28
9639 12046 12049 28
9640 12046 12050 28
9641 12051 12052 28
9642 12051 12053 28
9643 12051 12054 28
9644 12051 12055 28
9645 12056 12057 28
9646 12056 12058 28
9647 12056 12059 28
9648 12056 12060 28
9649 12061 12062 28
9650 12061 12063 28
9651 12061 12064 28
9652 12061 12065 28
9653 12066 12067 28
9654 12066 12068 28
9655 12066 12069 28
9656 12066 12070 28
9657 12071 12072 28
9658 12071 12073 28
9659 12071 12074 28
9660 12071 12075 28
9661 12076 12077 28
9662 12076 12078 28
9663 12076 12079 28
9664 12076 12080 28
9665 12081 12082 28
9666 12081 12083 28
9667 12081 12084 28
9668 12081 12085 28
9669 12086 12087 28
9670 12086 12088 28
9671 12086 12089 28
9672 12086 12090 28
9673 12091 12092 28
9674 12091 12093 28
9675 12091 12094 28
9676 12091 12095 28
9677 12096 12097 28
9678 12096 12098 28
9679 12096 12099 28
9680 12096 12100 28
9681 12101 12102 28
9682 12101 12103 28
9683 12101 12104 28
9684 12101 12105 28
9685 12106 12107 28
9686 12106 12108 28
9687 12106 12109 28
9688 12106 12110 28
9689 12111 12112 28
9690 12111 12113 28
9691 12111 12114 28
9692 12111 12115 28
9693 12116 12117 28
9694 12116 12118 28
9695 12116 12119 28
9696 12116 12120 28
9697 12121 12122 28
9698 12121 12123 28
9699 12121 12124 28
9700 12121 12125 28
9701 12126 12127 28
9702 12126 12128 28
9703 12126 12129 28
9704 12126 12130 28
9705 12131 12132 28
9706 12131 12133 28
9707 12131 12134 28
9708 12131 12135 28
9709 12136 12137 28
9710 12136 12138 28
9711 12136 12139 28
9712 12136 12140 28
9713 12141 12142 28
9714 12141 12143 28
9715 12141 12144 28
9716 12141 12145 28
9717 12146 12147 28
9718 12146 12148 28
9719 12146 12149 28
9720 12146 12150 28
9721 12151 12152 28
9722 12151 12153 28
9723 12151 12154 28
9724 12151 12155 28
9725 12156 12157 28
9726 12156 12158 28
9727 12156 12159 28
9728 12156 12160 28
9729 12161 12162 28
9730 12161 12163 28
9731 12161 12164 28
9732 12161 12165 28
9733 12166 12167 28
9734 12166 12168 28
9735 12166 12169 28
9736 12166 12170 28
9737 12171 12172 28
9738 12171 12173 28
9739 12171 12174 28
9740 12171 12175 28
9741 12176 12177 28
9742 12176 12178 28
9743 12176 12179 28
9744 12176 12180 28
9745 12181 12182 28
9746 12181 12183 28
9747 12181 12184 28
9748 12181 12185 28
9749 12186 12187 28
9750 12186 12188 28
9751 12186 12189 28
9752 12186 12190 28
9753 12191 12192 28
9754 12191 12193 28
9755 12191 12194 28
9756 12191 12195 28
9757 12196 12197 28
9758 12196 12198 28
9759 12196 12199 28
9760 12196 12200 28
9761 12201 12202 28
9762 12201 12203 28
9763 12201 12204 28
9764 12201 12205 28
9765 12206 12207 28
9766 12206 12208 28
9767 12206 12209 28
9768 12206 12210 28
9769 12211 12212 28
9770 12211 12213 28
9771 12211 12214 28
9772 12211 12215 28
9773 12216 12217 28
9774 12216 12218 28
9775 12216 12219 28
9776 12216 12220 28
9777 12221 12222 28
9778 12221 12223 28
9779 12221 12224 28
9780 12221 12225 28
9781 12226 12227 28
9782 12226 12228 28
9783 12226 12229 28
9784 12226 12230 28
9785 12231 12232 28
9786 12231 12233 28
9787 12231 12234 28
9788 12231 12235 28
9789 12236 12237 28
9790 12236 12238 28
9791 12236 12239 28
9792 12236 12240 28
9793 12241 12242 28
9794 12241 12243 28
9795 12241 12244 28
9796 12241 12245 28
9797 12246 12247 28
9798 12246 12248 28
9799 12246 12249 28
9800 12246 12250 28
9801 12251 12252 28
9802 12251 12253 28
9803 12251 12254 28
9804 12251 12255 28
9805 12256 12257 28
9806 12256 12258 28
9807 12256 12259 28
9808 12256 12260 28
9809 12261 12262 28
9810 12261 12263 28
9811 12261 12264 28
9812 12261 12265 28
9813 12266 12267 28
9814 12266 12268 28
9815 12266 12269 28
9816 12266 12270 28
9817 12271 12272 28
9818 12271 12273 28
9819 12271 12274 28
9820 12271 12275 28
9821 12276 12277 28
9822 12276 12278 28
9823 12276 12279 28
9824 12276 12280 28
9825 12281 12282 28
9826 12281 12283 28
9827 12281 12284 28
9828 12281 12285 28
9829 12286 12287 28
9830 12286 12288 28
9831 12286 12289 28
9832 12286 12290 28
9833 12291 12292 28
9834 12291 12293 28
9835 12291 12294 28
9836 12291 12295 28
9837 12296 12297 28
9838 12296 12298 28
9839 12296 12299 28
9840 12296 12300 28
9841 12301 12302 28
9842 12301 12303 28
9843 12301 12304 28
9844 12301 12305 28
9845 12306 12307 28
9846 12306 12308 28
9847 12306 12309 28
9848 12306 12310 28
9849 12311 12312 28
9850 12311 12313 28
9851 12311 12314 28
9852 12311 12315 28
9853 12316 12317 28
9854 12316 12318 28
9855 12316 12319 28
9856 12316 12320 28
9857 12321 12322 28
9858 12321 12323 28
9859 12321 12324 28
9860 12321 12325 28
9861 12326 12327 28
9862 12326 12328 28
9863 12326 12329 28
9864 12326 12330 28
9865 12331 12332 28
9866 12331 12333 28
9867 12331 12334 28
9868 12331 12335 28
9869 12336 12337 28
9870 12336 12338 28
9871 12336 12339 28
9872 12336 12340 28
9873 12341 12342 28
9874 12341 12343 28
9875 12341 12344 28
9876 12341 12345 28
9877 12346 12347 28
9878 12346 12348 28
9879 12346 12349 28
9880 12346 12350 28
9881 12351 12352 28
9882 12351 12353 28
9883 12351 12354 28
9884 12351 12355 28
9885 12356 12357 28
9886 12356 12358 28
9887 12356 12359 28
9888 12356 12360 28
9889 12361 12362 28
9890 12361 12363 28
9891 12361 12364 28
9892 12361 12365 28
9893 12366 12367 28
9894 12366 12368 28
9895 12366 12369 28
9896 12366 12370 28
9897 12371 12372 28
9898 12371 12373 28
9899 12371 12374 28
9900 12371 12375 28
9901 12376 12377 28
9902 12376 12378 28
9903 12376 12379 28
9904 12376 12380 28
9905 12381 12382 28
9906 12381 12383 28
9907 12381 12384 28
9908 12381 12385 28
9909 12386 12387 28
9910 12386 12388 28
9911 12386 12389 28
9912 12386 12390 28
9913 12391 12392 28
9914 12391 12393 28
9915 12391 12394 28
9916 12391 12395 28
9917 12396 12397 28
9918 12396 12398 28
9919 12396 12399 28
9920 12396 12400 28
9921 12401 12402 28
9922 12401 12403 28
9923 12401 12404 28
9924 12401 12405 28
9925 12406 12407 28
9926 12406 12408 28
9927 12406 12409 28
9928 12406 12410 28
9929 12411 12412 28
9930 12411 12413 28
9931 12411 12414 28
9932 12411 12415 28
9933 12416 12417 28
9934 12416 12418 28
9935 12416 12419 28
9936 12416 12420 28
9937 12421 12422 28
9938 12421 12423 28
9939 12421 12424 28
9940 12421 12425 28
9941 12426 12427 28
9942 12426 12428 28
9943 12426 12429 28
9944 12426 12430 28
9945 12431 12432 28
9946 12431 12433 28
9947 12431 12434 28
9948 12431 12435 28
9949 12436 12437 28
9950 12436 12438 28
9951 12436 12439 28
9952 12436 12440 28
9953 12441 12442 28
9954 12441 12443 28
9955 12441 12444 28
9956 12441 12445 28
9957 12446 12447 28
9958 12446 12448 28
9959 12446 12449 28
9960 12446 12450 28
9961 12451 12452 28
9962 12451 12453 28
9963 12451 12454 28
9964 12451 12455 28
9965 12456 12457 28
9966 12456 12458 28
9967 12456 12459 28
9968 12456 12460 28
9969 12461 12462 28
9970 12461 12463 28
9971 12461 12464 28
9972 12461 12465 28
9973 12466 12467 28
9974 12466 12468 28
9975 12466 12469 28
9976 12466 12470 28
9977 12471 12472 28
9978 12471 12473 28
9979 12471 12474 28
9980 12471 12475 28
9981 12476 12477 28
9982 12476 12478 28
9983 12476 12479 28
9984 12476 12480 28
9985 12481 12482 28
9986 12481 12483 28
9987 12481 12484 28
9988 12481 12485 28
9989 12486 12487 28
9990 12486 12488 28
9991 12486 12489 28
9992 12486 12490 28
9993 12491 12492 28
9994 12491 12493 28
9995 12491 12494 28
9996 12491 12495 28
9997 12496 12497 28
9998 12496 12498 28
9999 12496 12499 28
10000 12496 12500 28
10001 12501 12502 28
10002 12501 12503 28
10003 12501 12504 28
10004 12501 12505 28
10005 12506 12507 28
10006 12506 12508 28
10007 12506 12509 28
10008 12506 12510 28
10009 12511 12512 28
10010 12511 12513 28
10011 12511 12514 28
10012 12511 12515 28
10013 12516 12517 28
10014 12516 12518 28
10015 12516 12519 28
10016 12516 12520 28
10017 12521 12522 28
10018 12521 12523 28
10019 12521 12524 28
10020 12521 12525 28
10021 12526 12527 28
10022 12526 12528 28
10023 12526 12529 28
10024 12526 12530 28
10025 12531 12532 28
10026 12531 12533 28
10027 12531 12534 28
10028 12531 12535 28
10029 12536 12537 28
10030 12536 12538 28
10031 12536 12539 28
10032 12536 12540 28
10033 12541 12542 28
10034 12541 12543 28
10035 12541 12544 28
10036 12541 12545 28
10037 12546 12547 28
10038 12546 12548 28
10039 12546 12549 28
10040 12546 12550 28
10041 12551 12552 28
10042 12551 12553 28
10043 12551 12554 28
10044 12551 12555 28
10045 12556 12557 28
10046 12556 12558 28
10047 12556 12559 28
10048 12556 12560 28
10049 12561 12562 28
10050 12561 12563 28
10051 12561 12564 28
10052 12561 12565 28
10053 12566 12567 28
10054 12566 12568 28
10055 12566 12569 28
10056 12566 12570 28
10057 12571 12572 28
10058 12571 12573 28
10059 12571 12574 28
10060 12571 12575 28
10061 12576 12577 28
10062 12576 12578 28
10063 12576 12579 28
10064 12576 12580 28
10065 12581 12582 28
10066 12581 12583 28
10067 12581 12584 28
10068 12581 12585 28
10069 12586 12587 28
10070 12586 12588 28
10071 12586 12589 28
10072 12586 12590 28
10073 12591 12592 28
10074 12591 12593 28
10075 12591 12594 28
10076 12591 12595 28
10077 12596 12597 28
10078 12596 12598 28
10079 12596 12599 28
10080 12596 12600 28
10081 12601 12602 28
10082 12601 12603 28
10083 12601 12604 28
10084 12601 12605 28
10085 12606 12607 28
10086 12606 12608 28
10087 12606 12609 28
10088 12606 12610 28
10089 12611 12612 28
10090 12611 12613 28
10091 12611 12614 28
10092 12611 12615 28
10093 12616 12617 28
10094 12616 12618 28
10095 12616 12619 28
10096 12616 12620 28
10097 12621 12622 28
10098 12621 12623 28
10099 12621 12624 28
10100 12621 12625 28
10101 12626 12627 28
10102 12626 12628 28
10103 12626 12629 28
10104 12626 12630 28
10105 12631 12632 28
10106 12631 12633 28
10107 12631 12634 28
10108 12631 12635 28
10109 12636 12637 28
10110 12636 12638 28
10111 12636 12639 28
10112 12636 12640 28
10113 12641 12642 28
10114 12641 12643 28
10115 12641 12644 28
10116 12641 12645 28
10117 12646 12647 28
10118 12646 12648 28
10119 12646 12649 28
10120 12646 12650 28
10121 12651 12652 28
10122 12651 12653 28
10123 12651 12654 28
10124 12651 12655 28
10125 12656 12657 28
10126 12656 12658 28
10127 12656 12659 28
10128 12656 12660 28
10129 12661 12662 28
10130 12661 12663 28
10131 12661 12664 28
10132 12661 12665 28
10133 12666 12667 28
10134 12666 12668 28
10135 12666 12669 28
10136 12666 12670 28
10137 12671 12672 28
10138 12671 12673 28
10139 12671 12674 28
10140 12671 12675 28
10141 12676 12677 28
10142 12676 12678 28
10143 12676 12679 28
10144 12676 12680 28
10145 12681 12682 28
10146 12681 12683 28
10147 12681 12684 28
10148 12681 12685 28
10149 12686 12687 28
10150 12686 12688 28
10151 12686 12689 28
10152 12686 12690 28
10153 12691 12692 28
10154 12691 12693 28
10155 12691 12694 28
10156 12691 12695 28
10157 12696 12697 28
10158 12696 12698 28
10159 12696 12699 28
10160 12696 12700 28
10161 12701 12702 28
10162 12701 12703 28
10163 12701 12704 28
10164 12701 12705 28
10165 12706 12707 28
10166 12706 12708 28
10167 12706 12709 28
10168 12706 12710 28
10169 12711 12712 28
10170 12711 12713 28
10171 12711 12714 28
10172 12711 12715 28
10173 12716 12717 28
10174 12716 12718 28
10175 12716 12719 28
10176 12716 12720 28
10177 12721 12722 28
10178 12721 12723 28
10179 12721 12724 28
10180 12721 12725 28
10181 12726 12727 28
10182 12726 12728 28
10183 12726 12729 28
10184 12726 12730 28
10185 12731 12732 28
10186 12731 12733 28
10187 12731 12734 28
10188 12731 12735 28
10189 12736 12737 28
10190 12736 12738 28
10191 12736 12739 28
10192 12736 12740 28
10193 12741 12742 28
10194 12741 12743 28
10195 12741 12744 28
10196 12741 12745 28
10197 12746 12747 28
10198 12746 12748 28
10199 12746 12749 28
10200 12746 12750 28
10201 12751 12752 28
10202 12751 12753 28
10203 12751 12754 28
10204 12751 12755 28
10205 12756 12757 28
10206 12756 12758 28
10207 12756 12759 28
10208 12756 12760 28
10209 12761 12762 28
10210 12761 12763 28
10211 12761 12764 28
10212 12761 12765 28
10213 12766 12767 28
10214 12766 12768 28
10215 12766 12769 28
10216 12766 12770 28
10217 12771 12772 28
10218 12771 12773 28
10219 12771 12774 28
10220 12771 12775 28
10221 12776 12777 28
10222 12776 12778 28
10223 12776 12779 28
10224 12776 12780 28
10225 12781 12782 28
10226 12781 12783 28
10227 12781 12784 28
10228 12781 12785 28
10229 12786 12787 28
10230 12786 12788 28
10231 12786 12789 28
10232 12786 12790 28
10233 12791 12792 28
10234 12791 12793 28
10235 12791 12794 28
10236 12791 12795 28
10237 12796 12797 28
10238 12796 12798 28
10239 12796 12799 28
10240 12796 12800 28
10241 12801 12802 28
10242 12801 12803 28
10243 12801 12804 28
10244 12801 12805 28
10245 12806 12807 28
10246 12806 12808 28
10247 12806 12809 28
10248 12806 12810 28
10249 12811 12812 28
10250 12811 12813 28
10251 12811 12814 28
10252 12811 12815 28
10253 12816 12817 28
10254 12816 12818 28
10255 12816 12819 28
10256 12816 12820 28
10257 12821 12822 28
10258 12821 12823 28
10259 12821 12824 28
10260 12821 12825 28
10261 12826 12827 28
10262 12826 12828 28
10263 12826 12829 28
10264 12826 12830 28
10265 12831 12832 28
10266 12831 12833 28
10267 12831 12834 28
10268 12831 12835 28
10269 12836 12837 28
10270 12836 12838 28
10271 12836 12839 28
10272 12836 12840 28
10273 12841 12842 28
10274 12841 12843 28
10275 12841 12844 28
10276 12841 12845 28
10277 12846 12847 28
10278 12846 12848 28
10279 12846 12849 28
10280 12846 12850 28
10281 12851 12852 28
10282 12851 12853 28
10283 12851 12854 28
10284 12851 12855 28
10285 12856 12857 28
10286 12856 12858 28
10287 12856 12859 28
10288 12856 12860 28
10289 12861 12862 28
10290 12861 12863 28
10291 12861 12864 28
10292 12861 12865 28
10293 12866 12867 28
10294 12866 12868 28
10295 12866 12869 28
10296 12866 12870 28
10297 12871 12872 28
10298 12871 12873 28
10299 12871 12874 28
10300 12871 12875 28
10301 12876 12877 28
10302 12876 12878 28
10303 12876 12879 28
10304 12876 12880 28
10305 12881 12882 28
10306 12881 12883 28
10307 12881 12884 28
10308 12881 12885 28
10309 12886 12887 28
10310 12886 12888 28
10311 12886 12889 28
10312 12886 12890 28
10313 12891 12892 28
10314 12891 12893 28
10315 12891 12894 28
10316 12891 12895 28
10317 12896 12897 28
10318 12896 12898 28
10319 12896 12899 28
10320 12896 12900 28
10321 12901 12902 28
10322 12901 12903 28
10323 12901 12904 28
10324 12901 12905 28
10325 12906 12907 28
10326 12906 12908 28
10327 12906 12909 28
10328 12906 12910 28
10329 12911 12912 28
10330 12911 12913 28
10331 12911 12914 28
10332 12911 12915 28
10333 12916 12917 28
10334 12916 12918 28
10335 12916 12919 28
10336 12916 12920 28
10337 12921 12922 28
10338 12921 12923 28
10339 12921 12924 28
10340 12921 12925 28
10341 12926 12927 28
10342 12926 12928 28
10343 12926 12929 28
10344 12926 12930 28
10345 12931 12932 28
10346 12931 12933 28
10347 12931 12934 28
10348 12931 12935 28
10349 12936 12937 28
10350 12936 12938 28
10351 12936 12939 28
10352 12936 12940 28
10353 12941 12942 28
10354 12941 12943 28
10355 12941 12944 28
10356 12941 12945 28
10357 12946 12947 28
10358 12946 12948 28
10359 12946 12949 28
10360 12946 12950 28
10361 12951 12952 28
10362 12951 12953 28
10363 12951 12954 28
10364 12951 12955 28
10365 12956 12957 28
10366 12956 12958 28
10367 12956 12959 28
10368 12956 12960 28
10369 12961 12962 28
10370 12961 12963 28
10371 12961 12964 28
10372 12961 12965 28
10373 12966 12967 28
10374 12966 12968 28
10375 12966 12969 28
10376 12966 12970 28
10377 12971 12972 28
10378 12971 12973 28
10379 12971 12974 28
10380 12971 12975 28
10381 12976 12977 28
10382 12976 12978 28
10383 12976 12979 28
10384 12976 12980 28
10385 12981 12982 28
10386 12981 12983 28
10387 12981 12984 28
10388 12981 12985 28
10389 12986 12987 28
10390 12986 12988 28
10391 12986 12989 28
10392 12986 12990 28
10393 12991 12992 28
10394 12991 12993 28
10395 12991 12994 28
10396 12991 12995 28
10397 12996 12997 28
10398 12996 12998 28
10399 12996 12999 28
10400 12996 13000 28
10401 13001 13002 28
10402 13001 13003 28
10403 13001 13004 28
10404 13001 13005 28
10405 13006 13007 28
10406 13006 13008 28
10407 13006 13009 28
10408 13006 13010 28
10409 13011 13012 28
10410 13011 13013 28
10411 13011 13014 28
10412 13011 13015 28
10413 13016 13017 28
10414 13016 13018 28
10415 13016 13019 28
10416 13016 13020 28
10417 13021 13022 28
10418 13021 13023 28
10419 13021 13024 28
10420 13021 13025 28
10421 13026 13027 28
10422 13026 13028 28
10423 13026 13029 28
10424 13026 13030 28
10425 13031 13032 28
10426 13031 13033 28
10427 13031 13034 28
10428 13031 13035 28
10429 13036 13037 28
10430 13036 13038 28
10431 13036 13039 28
10432 13036 13040 28
10433 13041 13042 28
10434 13041 13043 28
10435 13041 13044 28
10436 13041 13045 28
10437 13046 13047 28
10438 13046 13048 28
10439 13046 13049 28
10440 13046 13050 28
10441 13051 13052 28
10442 13051 13053 28
10443 13051 13054 28
10444 13051 13055 28
10445 13056 13057 28
10446 13056 13058 28
10447 13056 13059 28
10448 13056 13060 28
10449 13061 13062 28
10450 13061 13063 28
10451 13061 13064 28
10452 13061 13065 28
10453 13066 13067 28
10454 13066 13068 28
10455 13066 13069 28
10456 13066 13070 28
10457 13071 13072 28
10458 13071 13073 28
10459 13071 13074 28
10460 13071 13075 28
10461 13076 13077 28
10462 13076 13078 28
10463 13076 13079 28
10464 13076 13080 28
10465 13081 13082 28
10466 13081 13083 28
10467 13081 13084 28
10468 13081 13085 28
10469 13086 13087 28
10470 13086 13088 28
10471 13086 13089 28
10472 13086 13090 28
10473 13091 13092 28
10474 13091 13093 28
10475 13091 13094 28
10476 13091 13095 28
10477 13096 13097 28
10478 13096 13098 28
10479 13096 13099 28
10480 13096 13100 28
10481 13101 13102 28
10482 13101 13103 28
10483 13101 13104 28
10484 13101 13105 28
10485 13106 13107 28
10486 13106 13108 28
10487 13106 13109 28
10488 13106 13110 28
10489 13111 13112 28
10490 13111 13113 28
10491 13111 13114 28
10492 13111 13115 28
10493 13116 13117 28
10494 13116 13118 28
10495 13116 13119 28
10496 13116 13120 28
10497 13121 13122 28
10498 13121 13123 28
10499 13121 13124 28
10500 13121 13125 28
10501 13126 13127 28
10502 13126 13128 28
10503 13126 13129 28
10504 13126 13130 28
10505 13131 13132 28
10506 13131 13133 28
10507 13131 13134 28
10508 13131 13135 28
10509 13136 13137 28
10510 13136 13138 28
10511 13136 13139 28
10512 13136 13140 28
10513 13141 13142 28
10514 13141 13143 28
10515 13141 13144 28
10516 13141 13145 28
10517 13146 13147 28
10518 13146 13148 28
10519 13146 13149 28
10520 13146 13150 28
10521 13151 13152 28
10522 13151 13153 28
10523 13151 13154 28
10524 13151 13155 28
10525 13156 13157 28
10526 13156 13158 28
10527 13156 13159 28
10528 13156 13160 28
10529 13161 13162 28
10530 13161 13163 28
10531 13161 13164 28
10532 13161 13165 28
10533 13166 13167 28
10534 13166 13168 28
10535 13166 13169 28
10536 13166 13170 28
10537 13171 13172 28
10538 13171 13173 28
10539 13171 13174 28
10540 13171 13175 28
10541 13176 13177 28
10542 13176 13178 28
10543 13176 13179 28
10544 13176 13180 28
10545 13181 13182 28
10546 13181 13183 28
10547 13181 13184 28
10548 13181 13185 28
10549 13186 13187 28
10550 13186 13188 28
10551 13186 13189 28
10552 13186 13190 28
10553 13191 13192 28
10554 13191 13193 28
10555 13191 13194 28
10556 13191 13195 28
10557 13196 13197 28
10558 13196 13198 28
10559 13196 13199 28
10560 13196 13200 28
10561 13201 13202 28
10562 13201 13203 28
10563 13201 13204 28
10564 13201 13205 28
10565 13206 13207 28
10566 13206 13208 28
10567 13206 13209 28
10568 13206 13210 28
10569 13211 13212 28
10570 13211 13213 28
10571 13211 13214 28
10572 13211 13215 28
10573 13216 13217 28
10574 13216 13218 28
10575 13216 13219 28
10576 13216 13220 28
10577 13221 13222 28
10578 13221 13223 28
10579 13221 13224 28
10580 13221 13225 28
10581 13226 13227 28
10582 13226 13228 28
10583 13226 13229 28
10584 13226 13230 28
10585 13231 13232 28
10586 13231 13233 28
10587 13231 13234 28
10588 13231 13235 28
10589 13236 13237 28
10590 13236 13238 28
10591 13236 13239 28
10592 13236 13240 28
10593 13241 13242 28
10594 13241 13243 28
10595 13241 13244 28
10596 13241 13245 28
10597 13246 13247 28
10598 13246 13248 28
10599 13246 13249 28
10600 13246 13250 28
10601 13251 13252 28
10602 13251 13253 28
10603 13251 13254 28
10604 13251 13255 28
10605 13256 13257 28
10606 13256 13258 28
10607 13256 13259 28
10608 13256 13260 28
10609 13261 13262 28
10610 13261 13263 28
10611 13261 13264 28
10612 13261 13265 28
10613 13266 13267 28
10614 13266 13268 28
10615 13266 13269 28
10616 13266 13270 28
10617 13271 13272 28
10618 13271 13273 28
10619 13271 13274 28
10620 13271 13275 28
10621 13276 13277 28
10622 13276 13278 28
10623 13276 13279 28
10624 13276 13280 28
10625 13281 13282 28
10626 13281 13283 28
10627 13281 13284 28
10628 13281 13285 28
10629 13286 13287 28
10630 13286 13288 28
10631 13286 13289 28
10632 13286 13290 28
10633 13291 13292 28
10634 13291 13293 28
10635 13291 13294 28
10636 13291 13295 28
10637 13296 13297 28
10638 13296 13298 28
10639 13296 13299 28
10640 13296 13300 28
10641 13301 13302 28
10642 13301 13303 28
10643 13301 13304 28
10644 13301 13305 28
10645 13306 13307 28
10646 13306 13308 28
10647 13306 13309 28
10648 13306 13310 28
10649 13311 13312 28
10650 13311 13313 28
10651 13311 13314 28
10652 13311 13315 28
10653 13316 13317 28
10654 13316 13318 28
10655 13316 13319 28
10656 13316 13320 28
10657 13321 13322 28
10658 13321 13323 28
10659 13321 13324 28
10660 13321 13325 28
10661 13326 13327 28
10662 13326 13328 28
10663 13326 13329 28
10664 13326 13330 28
10665 13331 13332 28
10666 13331 13333 28
10667 13331 13334 28
10668 13331 13335 28
10669 13336 13337 28
10670 13336 13338 28
10671 13336 13339 28
10672 13336 13340 28
10673 13341 13342 28
10674 13341 13343 28
10675 13341 13344 28
10676 13341 13345 28
10677 13346 13347 28
10678 13346 13348 28
10679 13346 13349 28
10680 13346 13350 28
10681 13351 13352 28
10682 13351 13353 28
10683 13351 13354 28
10684 13351 13355 28
10685 13356 13357 28
10686 13356 13358 28
10687 13356 13359 28
10688 13356 13360 28
10689 13361 13362 28
10690 13361 13363 28
10691 13361 13364 28
10692 13361 13365 28
10693 13366 13367 28
10694 13366 13368 28
10695 13366 13369 28
10696 13366 13370 28
10697 13371 13372 28
10698 13371 13373 28
10699 13371 13374 28
10700 13371 13375 28
10701 13376 13377 28
10702 13376 13378 28
10703 13376 13379 28
10704 13376 13380 28
10705 13381 13382 28
10706 13381 13383 28
10707 13381 13384 28
10708 13381 13385 28
10709 13386 13387 28
10710 13386 13388 28
10711 13386 13389 28
10712 13386 13390 28
10713 13391 13392 28
10714 13391 13393 28
10715 13391 13394 28
10716 13391 13395 28
10717 13396 13397 28
10718 13396 13398 28
10719 13396 13399 28
10720 13396 13400 28
10721 13401 13402 28
10722 13401 13403 28
10723 13401 13404 28
10724 13401 13405 28
10725 13406 13407 28
10726 13406 13408 28
10727 13406 13409 28
10728 13406 13410 28
10729 13411 13412 28
10730 13411 13413 28
10731 13411 13414 28
10732 13411 13415 28
10733 13416 13417 28
10734 13416 13418 28
10735 13416 13419 28
10736 13416 13420 28
10737 13421 13422 28
10738 13421 13423 28
10739 13421 13424 28
10740 13421 13425 28
10741 13426 13427 28
10742 13426 13428 28
10743 13426 13429 28
10744 13426 13430 28
10745 13431 13432 28
10746 13431 13433 28
10747 13431 13434 28
10748 13431 13435 28
10749 13436 13437 28
10750 13436 13438 28
10751 13436 13439 28
10752 13436 13440 28
10753 13441 13442 28
10754 13441 13443 28
10755 13441 13444 28
10756 13441 13445 28
10757 13446 13447 28
10758 13446 13448 28
10759 13446 13449 28
10760 13446 13450 28
10761 13451 13452 28
10762 13451 13453 28
10763 13451 13454 28
10764 13451 13455 28
10765 13456 13457 28
10766 13456 13458 28
10767 13456 13459 28
10768 13456 13460 28
10769 13461 13462 28
10770 13461 13463 28
10771 13461 13464 28
10772 13461 13465 28
10773 13466 13467 28
10774 13466 13468 28
10775 13466 13469 28
10776 13466 13470 28
10777 13471 13472 28
10778 13471 13473 28
10779 13471 13474 28
10780 13471 13475 28
10781 13476 13477 28
10782 13476 13478 28
10783 13476 13479 28
10784 13476 13480 28
10785 13481 13482 28
10786 13481 13483 28
10787 13481 13484 28
10788 13481 13485 28
10789 13486 13487 28
10790 13486 13488 28
10791 13486 13489 28
10792 13486 13490 28
10793 13491 13492 28
10794 13491 13493 28
10795 13491 13494 28
10796 13491 13495 28
10797 13496 13497 28
10798 13496 13498 28
10799 13496 13499 28
10800 13496 13500 28
10801 13501 13502 28
10802 13501 13503 28
10803 13501 13504 28
10804 13501 13505 28
10805 13506 13507 28
10806 13506 13508 28
10807 13506 13509 28
10808 13506 13510 28
10809 13511 13512 28
10810 13511 13513 28
10811 13511 13514 28
10812 13511 13515 28
10813 13516 13517 28
10814 13516 13518 28
10815 13516 13519 28
10816 13516 13520 28
10817 13521 13522 28
10818 13521 13523 28
10819 13521 13524 28
10820 13521 13525 28
10821 13526 13527 28
10822 13526 13528 28
10823 13526 13529 28
10824 13526 13530 28
10825 13531 13532 28
10826 13531 13533 28
10827 13531 13534 28
10828 13531 13535 28
10829 13536 13537 28
10830 13536 13538 28
10831 13536 13539 28
10832 13536 13540 28
10833 13541 13542 28
10834 13541 13543 28
10835 13541 13544 28
10836 13541 13545 28
10837 13546 13547 28
10838 13546 13548 28
10839 13546 13549 28
10840 13546 13550 28
10841 13551 13552 28
10842 13551 13553 28
10843 13551 13554 28
10844 13551 13555 28
10845 13556 13557 28
10846 13556 13558 28
10847 13556 13559 28
10848 13556 13560 28
10849 13561 13562 28
10850 13561 13563 28
10851 13561 13564 28
10852 13561 13565 28
10853 13566 13567 28
10854 13566 13568 28
10855 13566 13569 28
10856 13566 13570 28
10857 13571 13572 28
10858 13571 13573 28
10859 13571 13574 28
10860 13571 13575 28
10861 13576 13577 28
10862 13576 13578 28
10863 13576 13579 28
10864 13576 13580 28
10865 13581 13582 28
10866 13581 13583 28
10867 13581 13584 28
10868 13581 13585 28
10869 13586 13587 28
10870 13586 13588 28
10871 13586 13589 28
10872 13586 13590 28
10873 13591 13592 28
10874 13591 13593 28
10875 13591 13594 28
10876 13591 13595 28
10877 13596 13597 28
10878 13596 13598 28
10879 13596 13599 28
10880 13596 13600 28
10881 13601 13602 28
10882 13601 13603 28
10883 13601 13604 28
10884 13601 13605 28
10885 13606 13607 28
10886 13606 13608 28
10887 13606 13609 28
10888 13606 13610 28
10889 13611 13612 28
10890 13611 13613 28
10891 13611 13614 28
10892 13611 13615 28
10893 13616 13617 28
10894 13616 13618 28
10895 13616 13619 28
10896 13616 13620 28
10897 13621 13622 28
10898 13621 13623 28
10899 13621 13624 28
10900 13621 13625 28
10901 13626 13627 28
10902 13626 13628 28
10903 13626 13629 28
10904 13626 13630 28
10905 13631 13632 28
10906 13631 13633 28
10907 13631 13634 28
10908 13631 13635 28
10909 13636 13637 28
10910 13636 13638 28
10911 13636 13639 28
10912 13636 13640 28
10913 13641 13642 28
10914 13641 13643 28
10915 13641 13644 28
10916 13641 13645 28
10917 13646 13647 28
10918 13646 13648 28
10919 13646 13649 28
10920 13646 13650 28
10921 13651 13652 28
10922 13651 13653 28
10923 13651 13654 28
10924 13651 13655 28
10925 13656 13657 28
10926 13656 13658 28
10927 13656 13659 28
10928 13656 13660 28
10929 13661 13662 28
10930 13661 13663 28
10931 13661 13664 28
10932 13661 13665 28
10933 13666 13667 28
10934 13666 13668 28
10935 13666 13669 28
10936 13666 13670 28
10937 13671 13672 28
10938 13671 13673 28
10939 13671 13674 28
10940 13671 13675 28
10941 13676 13677 28
10942 13676 13678 28
10943 13676 13679 28
10944 13676 13680 28
10945 13681 13682 28
10946 13681 13683 28
10947 13681 13684 28
10948 13681 13685 28
10949 13686 13687 28
10950 13686 13688 28
10951 13686 13689 28
10952 13686 13690 28
10953 13691 13692 28
10954 13691 13693 28
10955 13691 13694 28
10956 13691 13695 28
10957 13696 13697 28
10958 13696 13698 28
10959 13696 13699 28
10960 13696 13700 28
10961 13701 13702 28
10962 13701 13703 28
10963 13701 13704 28
10964 13701 13705 28
10965 13706 13707 28
10966 13706 13708 28
10967 13706 13709 28
10968 13706 13710 28
10969 13711 13712 28
10970 13711 13713 28
10971 13711 13714 28
10972 13711 13715 28
10973 13716 13717 28
10974 13716 13718 28
10975 13716 13719 28
10976 13716 13720 28
10977 13721 13722 28
10978 13721 13723 28
10979 13721 13724 28
10980 13721 13725 28
10981 13726 13727 28
10982 13726 13728 28
10983 13726 13729 28
10984 13726 13730 28
10985 13731 13732 28
10986 13731 13733 28
10987 13731 13734 28
10988 13731 13735 28
10989 13736 13737 28
10990 13736 13738 28
10991 13736 13739 28
10992 13736 13740 28
10993 13741 13742 28
10994 13741 13743 28
10995 13741 13744 28
10996 13741 13745 28
10997 13746 13747 28
10998 13746 13748 28
10999 13746 13749 28
11000 13746 13750 28
11001 13751 13752 28
11002 13751 13753 28
11003 13751 13754 28
11004 13751 13755 28
11005 13756 13757 28
11006 13756 13758 28
11007 13756 13759 28
11008 13756 13760 28
11009 13761 13762 28
11010 13761 13763 28
11011 13761 13764 28
11012 13761 13765 28
11013 13766 13767 28
11014 13766 13768 28
11015 13766 13769 28
11016 13766 13770 28
11017 13771 13772 28
11018 13771 13773 28
11019 13771 13774 28
11020 13771 13775 28
11021 13776 13777 28
11022 13776 13778 28
11023 13776 13779 28
11024 13776 13780 28
11025 13781 13782 28
11026 13781 13783 28
11027 13781 13784 28
11028 13781 13785 28
11029 13786 13787 28
11030 13786 13788 28
11031 13786 13789 28
11032 13786 13790 28
11033 13791 13792 28
11034 13791 13793 28
11035 13791 13794 28
11036 13791 13795 28
11037 13796 13797 28
11038 13796 13798 28
11039 13796 13799 28
11040 13796 13800 28
11041 13801 13802 28
11042 13801 13803 28
11043 13801 13804 28
11044 13801 13805 28
11045 13806 13807 28
11046 13806 13808 28
11047 13806 13809 28
11048 13806 13810 28
11049 13811 13812 28
11050 13811 13813 28
11051 13811 13814 28
11052 13811 13815 28
11053 13816 13817 28
11054 13816 13818 28
11055 13816 13819 28
11056 13816 13820 28
11057 13821 13822 28
11058 13821 13823 28
11059 13821 13824 28
11060 13821 13825 28
11061 13826 13827 28
11062 13826 13828 28
11063 13826 13829 28
11064 13826 13830 28
11065 13831 13832 28
11066 13831 13833 28
11067 13831 13834 28
11068 13831 13835 28
11069 13836 13837 28
11070 13836 13838 28
11071 13836 13839 28
11072 13836 13840 28
11073 13841 13842 28
11074 13841 13843 28
11075 13841 13844 28
11076 13841 13845 28
11077 13846 13847 28
11078 13846 13848 28
11079 13846 13849 28
11080 13846 13850 28
11081 13851 13852 28
11082 13851 13853 28
11083 13851 13854 28
11084 13851 13855 28
11085 13856 13857 28
11086 13856 13858 28
11087 13856 13859 28
11088 13856 13860 28
11089 13861 13862 28
11090 13861 13863 28
11091 13861 13864 28
11092 13861 13865 28
11093 13866 13867 28
11094 13866 13868 28
11095 13866 13869 28
11096 13866 13870 28
11097 13871 13872 28
11098 13871 13873 28
11099 13871 13874 28
11100 13871 13875 28
11101 13876 13877 28
11102 13876 13878 28
11103 13876 13879 28
11104 13876 13880 28
11105 13881 13882 28
11106 13881 13883 28
11107 13881 13884 28
11108 13881 13885 28
11109 13886 13887 28
11110 13886 13888 28
11111 13886 13889 28
11112 13886 13890 28
11113 13891 13892 28
11114 13891 13893 28
11115 13891 13894 28
11116 13891 13895 28
11117 13896 13897 28
11118 13896 13898 28
11119 13896 13899 28
11120 13896 13900 28
11121 13901 13902 28
11122 13901 13903 28
11123 13901 13904 28
11124 13901 13905 28
11125 13906 13907 28
11126 13906 13908 28
11127 13906 13909 28
11128 13906 13910 28
11129 13911 13912 28
11130 13911 13913 28
11131 13911 13914 28
11132 13911 13915 28
11133 13916 13917 28
11134 13916 13918 28
11135 13916 13919 28
11136 13916 13920 28
11137 13921 13922 28
11138 13921 13923 28
11139 13921 13924 28
11140 13921 13925 28
11141 13926 13927 28
11142 13926 13928 28
11143 13926 13929 28
11144 13926 13930 28
11145 13931 13932 28
11146 13931 13933 28
11147 13931 13934 28
11148 13931 13935 28
11149 13936 13937 28
11150 13936 13938 28
11151 13936 13939 28
11152 13936 13940 28
11153 13941 13942 28
11154 13941 13943 28
11155 13941 13944 28
11156 13941 13945 28
11157 13946 13947 28
11158 13946 13948 28
11159 13946 13949 28
11160 13946 13950 28
11161 13951 13952 28
11162 13951 13953 28
11163 13951 13954 28
11164 13951 13955 28
11165 13956 13957 28
11166 13956 13958 28
11167 13956 13959 28
11168 13956 13960 28
11169 13961 13962 28
11170 13961 13963 28
11171 13961 13964 28
11172 13961 13965 28
11173 13966 13967 28
11174 13966 13968 28
11175 13966 13969 28
11176 13966 13970 28
11177 13971 13972 28
11178 13971 13973 28
11179 13971 13974 28
11180 13971 13975 28
11181 13976 13977 28
11182 13976 13978 28
11183 13976 13979 28
11184 13976 13980 28
11185 13981 13982 28
11186 13981 13983 28
11187 13981 13984 28
11188 13981 13985 28
11189 13986 13987 28
11190 13986 13988 28
11191 13986 13989 28
11192 13986 13990 28
11193 13991 13992 28
11194 13991 13993 28
11195 13991 13994 28
11196 13991 13995 28
11197 13996 13997 28
11198 13996 13998 28
11199 13996 13999 28
11200 13996 14000 28
11201 14001 14002 28
11202 14001 14003 28
11203 14001 14004 28
11204 14001 14005 28
11205 14006 14007 28
11206 14006 14008 28
11207 14006 14009 28
11208 14006 14010 28
11209 14011 14012 28
11210 14011 14013 28
11211 14011 14014 28
11212 14011 14015 28
11213 14016 14017 28
11214 14016 14018 28
11215 14016 14019 28
11216 14016 14020 28
11217 14021 14022 28
11218 14021 14023 28
11219 14021 14024 28
11220 14021 14025 28
11221 14026 14027 28
11222 14026 14028 28
11223 14026 14029 28
11224 14026 14030 28
11225 14031 14032 28
11226 14031 14033 28
11227 14031 14034 28
11228 14031 14035 28
11229 14036 14037 28
11230 14036 14038 28
11231 14036 14039 28
11232 14036 14040 28
11233 14041 14042 28
11234 14041 14043 28
11235 14041 14044 28
11236 14041 14045 28
11237 14046 14047 28
11238 14046 14048 28
11239 14046 14049 28
11240 14046 14050 28
11241 14051 14052 28
11242 14051 14053 28
11243 14051 14054 28
11244 14051 14055 28
11245 14056 14057 28
11246 14056 14058 28
11247 14056 14059 28
11248 14056 14060 28
11249 14061 14062 28
11250 14061 14063 28
11251 14061 14064 28
11252 14061 14065 28
11253 14066 14067 28
11254 14066 14068 28
11255 14066 14069 28
11256 14066 14070 28
11257 14071 14072 28
11258 14071 14073 28
11259 14071 14074 28
11260 14071 14075 28
11261 14076 14077 28
11262 14076 14078 28
11263 14076 14079 28
11264 14076 14080 28
11265 14081 14082 28
11266 14081 14083 28
11267 14081 14084 28
11268 14081 14085 28
11269 14086 14087 28
11270 14086 14088 28
11271 14086 14089 28
11272 14086 14090 28
11273 14091 14092 28
11274 14091 14093 28
11275 14091 14094 28
11276 14091 14095 28
11277 14096 14097 28
11278 14096 14098 28
11279 14096 14099 28
11280 14096 14100 28
11281 14101 14102 28
11282 14101 14103 28
11283 14101 14104 28
11284 14101 14105 28
11285 14106 14107 28
11286 14106 14108 28
11287 14106 14109 28
11288 14106 14110 28
11289 14111 14112 28
11290 14111 14113 28
11291 14111 14114 28
11292 14111 14115 28
11293 14116 14117 28
11294 14116 14118 28
11295 14116 14119 28
11296 14116 14120 28
11297 14121 14122 28
11298 14121 14123 28
11299 14121 14124 28
11300 14121 14125 28
11301 14126 14127 28
11302 14126 14128 28
11303 14126 14129 28
11304 14126 14130 28
11305 14131 14132 28
11306 14131 14133 28
11307 14131 14134 28
11308 14131 14135 28
11309 14136 14137 28
11310 14136 14138 28
11311 14136 14139 28
11312 14136 14140 28
11313 14141 14142 28
11314 14141 14143 28
11315 14141 14144 28
11316 14141 14145 28
11317 14146 14147 28
11318 14146 14148 28
11319 14146 14149 28
11320 14146 14150 28
11321 14151 14152 28
11322 14151 14153 28
11323 14151 14154 28
11324 14151 14155 28
11325 14156 14157 28
11326 14156 14158 28
11327 14156 14159 28
11328 14156 14160 28
11329 14161 14162 28
11330 14161 14163 28
11331 14161 14164 28
11332 14161 14165 28
11333 14166 14167 28
11334 14166 14168 28
11335 14166 14169 28
11336 14166 14170 28
11337 14171 14172 28
11338 14171 14173 28
11339 14171 14174 28
11340 14171 14175 28
11341 14176 14177 28
11342 14176 14178 28
11343 14176 14179 28
11344 14176 14180 28
11345 14181 14182 28
11346 14181 14183 28
11347 14181 14184 28
11348 14181 14185 28
11349 14186 14187 28
11350 14186 14188 28
11351 14186 14189 28
11352 14186 14190 28
11353 14191 14192 28
11354 14191 14193 28
11355 14191 14194 28
11356 14191 14195 28
11357 14196 14197 28
11358 14196 14198 28
11359 14196 14199 28
11360 14196 14200 28
11361 14201 14202 28
11362 14201 14203 28
11363 14201 14204 28
11364 14201 14205 28
11365 14206 14207 28
11366 14206 14208 28
11367 14206 14209 28
11368 14206 14210 28
11369 14211 14212 28
11370 14211 14213 28
11371 14211 14214 28
11372 14211 14215 28
11373 14216 14217 28
11374 14216 14218 28
11375 14216 14219 28
11376 14216 14220 28
11377 14221 14222 28
11378 14221 14223 28
11379 14221 14224 28
11380 14221 14225 28
11381 14226 14227 28
11382 14226 14228 28
11383 14226 14229 28
11384 14226 14230 28
11385 14231 14232 28
11386 14231 14233 28
11387 14231 14234 28
11388 14231 14235 28
11389 14236 14237 28
11390 14236 14238 28
11391 14236 14239 28
11392 14236 14240 28
11393 14241 14242 28
11394 14241 14243 28
11395 14241 14244 28
11396 14241 14245 28
11397 14246 14247 28
11398 14246 14248 28
11399 14246 14249 28
11400 14246 14250 28
11401 14251 14252 28
11402 14251 14253 28
11403 14251 14254 28
11404 14251 14255 28
11405 14256 14257 28
11406 14256 14258 28
11407 14256 14259 28
11408 14256 14260 28
11409 14261 14262 28
11410 14261 14263 28
11411 14261 14264 28
11412 14261 14265 28
11413 14266 14267 28
11414 14266 14268 28
11415 14266 14269 28
11416 14266 14270 28
11417 14271 14272 28
11418 14271 14273 28
11419 14271 14274 28
11420 14271 14275 28
11421 14276 14277 28
11422 14276 14278 28
11423 14276 14279 28
11424 14276 14280 28
11425 14281 14282 28
11426 14281 14283 28
11427 14281 14284 28
11428 14281 14285 28
11429 14286 14287 28
11430 14286 14288 28
11431 14286 14289 28
11432 14286 14290 28
11433 14291 14292 28
11434 14291 14293 28
11435 14291 14294 28
11436 14291 14295 28
11437 14296 14297 28
11438 14296 14298 28
11439 14296 14299 28
11440 14296 14300 28
11441 14301 14302 28
11442 14301 14303 28
11443 14301 14304 28
11444 14301 14305 28
11445 14306 14307 28
11446 14306 14308 28
11447 14306 14309 28
11448 14306 14310 28
11449 14311 14312 28
11450 14311 14313 28
11451 14311 14314 28
11452 14311 14315 28
11453 14316 14317 28
11454 14316 14318 28
11455 14316 14319 28
11456 14316 14320 28
11457 14321 14322 28
11458 14321 14323 28
11459 14321 14324 28
11460 14321 14325 28
11461 14326 14327 28
11462 14326 14328 28
11463 14326 14329 28
11464 14326 14330 28
11465 14331 14332 28
11466 14331 14333 28
11467 14331 14334 28
11468 14331 14335 28
11469 14336 14337 28
11470 14336 14338 28
11471 14336 14339 28
11472 14336 14340 28
11473 14341 14342 28
11474 14341 14343 28
11475 14341 14344 28
11476 14341 14345 28
11477 14346 14347 28
11478 14346 14348 28
11479 14346 14349 28
11480 14346 14350 28
11481 14351 14352 28
11482 14351 14353 28
11483 14351 14354 28
11484 14351 14355 28
11485 14356 14357 28
11486 14356 14358 28
11487 14356 14359 28
11488 14356 14360 28
11489 14361 14362 28
11490 14361 14363 28
11491 14361 14364 28
11492 14361 14365 28
11493 14366 14367 28
11494 14366 14368 28
11495 14366 14369 28
11496 14366 14370 28
11497 14371 14372 28
11498 14371 14373 28
11499 14371 14374 28
11500 14371 14375 28
11501 14376 14377 28
11502 14376 14378 28
11503 14376 14379 28
11504 14376 14380 28
11505 14381 14382 28
11506 14381 14383 28
11507 14381 14384 28
11508 14381 14385 28
11509 14386 14387 28
11510 14386 14388 28
11511 14386 14389 28
11512 14386 14390 28
11513 14391 14392 28
11514 14391 14393 28
11515 14391 14394 28
11516 14391 14395 28
11517 14396 14397 28
11518 14396 14398 28
11519 14396 14399 28
11520 14396 14400 28
11521 14401 14402 28
11522 14401 14403 28
11523 14401 14404 28
11524 14401 14405 28
11525 14406 14407 28
11526 14406 14408 28
11527 14406 14409 28
11528 14406 14410 28
11529 14411 14412 28
11530 14411 14413 28
11531 14411 14414 28
11532 14411 14415 28
11533 14416 14417 28
11534 14416 14418 28
11535 14416 14419 28
11536 14416 14420 28
11537 14421 14422 28
11538 14421 14423 28
11539 14421 14424 28
11540 14421 14425 28
11541 14426 14427 28
11542 14426 14428 28
11543 14426 14429 28
11544 14426 14430 28
11545 14431 14432 28
11546 14431 14433 28
11547 14431 14434 28
11548 14431 14435 28
11549 14436 14437 28
11550 14436 14438 28
11551 14436 14439 28
11552 14436 14440 28
11553 14441 14442 28
11554 14441 14443 28
11555 14441 14444 28
11556 14441 14445 28
11557 14446 14447 28
11558 14446 14448 28
11559 14446 14449 28
11560 14446 14450 28
11561 14451 14452 28
11562 14451 14453 28
11563 14451 14454 28
11564 14451 14455 28
11565 14456 14457 28
11566 14456 14458 28
11567 14456 14459 28
11568 14456 14460 28
11569 14461 14462 28
11570 14461 14463 28
11571 14461 14464 28
11572 14461 14465 28
11573 14466 14467 28
11574 14466 14468 28
11575 14466 14469 28
11576 14466 14470 28
11577 14471 14472 28
11578 14471 14473 28
11579 14471 14474 28
11580 14471 14475 28
11581 14476 14477 28
11582 14476 14478 28
11583 14476 14479 28
11584 14476 14480 28
11585 14481 14482 28
11586 14481 14483 28
11587 14481 14484 28
11588 14481 14485 28
11589 14486 14487 28
11590 14486 14488 28
11591 14486 14489 28
11592 14486 14490 28
11593 14491 14492 28
11594 14491 14493 28
11595 14491 14494 28
11596 14491 14495 28
11597 14496 14497 28
11598 14496 14498 28
11599 14496 14499 28
11600 14496 14500 28
11601 14501 14502 28
11602 14501 14503 28
11603 14501 14504 28
11604 14501 14505 28
11605 14506 14507 28
11606 14506 14508 28
11607 14506 14509 28
11608 14506 14510 28
11609 14511 14512 28
11610 14511 14513 28
11611 14511 14514 28
11612 14511 14515 28
11613 14516 14517 28
11614 14516 14518 28
11615 14516 14519 28
11616 14516 14520 28
11617 14521 14522 28
11618 14521 14523 28
11619 14521 14524 28
11620 14521 14525 28
11621 14526 14527 28
11622 14526 14528 28
11623 14526 14529 28
11624 14526 14530 28
11625 14531 14532 28
11626 14531 14533 28
11627 14531 14534 28
11628 14531 14535 28
11629 14536 14537 28
11630 14536 14538 28
11631 14536 14539 28
11632 14536 14540 28
11633 14541 14542 28
11634 14541 14543 28
11635 14541 14544 28
11636 14541 14545 28
11637 14546 14547 28
11638 14546 14548 28
11639 14546 14549 28
11640 14546 14550 28
11641 14551 14552 28
11642 14551 14553 28
11643 14551 14554 28
11644 14551 14555 28
11645 14556 14557 28
11646 14556 14558 28
11647 14556 14559 28
11648 14556 14560 28
11649 14561 14562 28
11650 14561 14563 28
11651 14561 14564 28
11652 14561 14565 28
11653 14566 14567 28
11654 14566 14568 28
11655 14566 14569 28
11656 14566 14570 28
11657 14571 14572 28
11658 14571 14573 28
11659 14571 14574 28
11660 14571 14575 28
11661 14576 14577 28
11662 14576 14578 28
11663 14576 14579 28
11664 14576 14580 28
11665 14581 14582 28
11666 14581 14583 28
11667 14581 14584 28
11668 14581 14585 28
11669 14586 14587 28
11670 14586 14588 28
11671 14586 14589 28
11672 14586 14590 28
11673 14591 14592 28
11674 14591 14593 28
11675 14591 14594 28
11676 14591 14595 28
11677 14596 14597 28
11678 14596 14598 28
11679 14596 14599 28
11680 14596 14600 28
11681 14601 14602 28
11682 14601 14603 28
11683 14601 14604 28
11684 14601 14605 28
11685 14606 14607 28
11686 14606 14608 28
11687 14606 14609 28
11688 14606 14610 28
11689 14611 14612 28
11690 14611 14613 28
11691 14611 14614 28
11692 14611 14615 28
11693 14616 14617 28
11694 14616 14618 28
11695 14616 14619 28
11696 14616 14620 28
11697 14621 14622 28
11698 14621 14623 28
11699 14621 14624 28
11700 14621 14625 28
11701 14626 14627 28
11702 14626 14628 28
11703 14626 14629 28
11704 14626 14630 28
11705 14631 14632 28
11706 14631 14633 28
11707 14631 14634 28
11708 14631 14635 28
11709 14636 14637 28
11710 14636 14638 28
11711 14636 14639 28
11712 14636 14640 28
11713 14641 14642 28
11714 14641 14643 28
11715 14641 14644 28
11716 14641 14645 28
11717 14646 14647 28
11718 14646 14648 28
11719 14646 14649 28
11720 14646 14650 28
11721 14651 14652 28
11722 14651 14653 28
11723 14651 14654 28
11724 14651 14655 28
11725 14656 14657 28
11726 14656 14658 28
11727 14656 14659 28
11728 14656 14660 28
11729 14661 14662 28
11730 14661 14663 28
11731 14661 14664 28
11732 14661 14665 28
11733 14666 14667 28
11734 14666 14668 28
11735 14666 14669 28
11736 14666 14670 28
11737 14671 14672 28
11738 14671 14673 28
11739 14671 14674 28
11740 14671 14675 28
11741 14676 14677 28
11742 14676 14678 28
11743 14676 14679 28
11744 14676 14680 28
11745 14681 14682 28
11746 14681 14683 28
11747 14681 14684 28
11748 14681 14685 28
11749 14686 14687 28
11750 14686 14688 28
11751 14686 14689 28
11752 14686 14690 28
11753 14691 14692 28
11754 14691 14693 28
11755 14691 14694 28
11756 14691 14695 28
11757 14696 14697 28
11758 14696 14698 28
11759 14696 14699 28
11760 14696 14700 28
11761 14701 14702 28
11762 14701 14703 28
11763 14701 14704 28
11764 14701 14705 28
11765 14706 14707 28
11766 14706 14708 28
11767 14706 14709 28
11768 14706 14710 28
11769 14711 14712 28
11770 14711 14713 28
11771 14711 14714 28
11772 14711 14715 28
11773 14716 14717 28
11774 14716 14718 28
11775 14716 14719 28
11776 14716 14720 28
11777 14721 14722 28
11778 14721 14723 28
11779 14721 14724 28
11780 14721 14725 28
11781 14726 14727 28
11782 14726 14728 28
11783 14726 14729 28
11784 14726 14730 28
11785 14731 14732 28
11786 14731 14733 28
11787 14731 14734 28
11788 14731 14735 28
11789 14736 14737 28
11790 14736 14738 28
11791 14736 14739 28
11792 14736 14740 28
11793 14741 14742 28
11794 14741 14743 28
11795 14741 14744 28
11796 14741 14745 28
11797 14746 14747 28
11798 14746 14748 28
11799 14746 14749 28
11800 14746 14750 28
11801 14751 14752 28
11802 14751 14753 28
11803 14751 14754 28
11804 14751 14755 28
11805 14756 14757 28
11806 14756 14758 28
11807 14756 14759 28
11808 14756 14760 28
11809 14761 14762 28
11810 14761 14763 28
11811 14761 14764 28
11812 14761 14765 28
11813 14766 14767 28
11814 14766 14768 28
11815 14766 14769 28
11816 14766 14770 28
11817 14771 14772 28
11818 14771 14773 28
11819 14771 14774 28
11820 14771 14775 28
11821 14776 14777 28
11822 14776 14778 28
11823 14776 14779 28
11824 14776 14780 28
11825 14781 14782 28
11826 14781 14783 28
11827 14781 14784 28
11828 14781 14785 28
11829 14786 14787 28
11830 14786 14788 28
11831 14786 14789 28
11832 14786 14790 28
11833 14791 14792 28
11834 14791 14793 28
11835 14791 14794 28
11836 14791 14795 28
11837 14796 14797 28
11838 14796 14798 28
11839 14796 14799 28
11840 14796 14800 28
11841 14801 14802 28
11842 14801 14803 28
11843 14801 14804 28
11844 14801 14805 28
11845 14806 14807 28
11846 14806 14808 28
11847 14806 14809 28
11848 14806 14810 28
11849 14811 14812 28
11850 14811 14813 28
11851 14811 14814 28
11852 14811 14815 28
11853 14816 14817 28
11854 14816 14818 28
11855 14816 14819 28
11856 14816 14820 28
11857 14821 14822 28
11858 14821 14823 28
11859 14821 14824 28
11860 14821 14825 28
11861 14826 14827 28
11862 14826 14828 28
11863 14826 14829 28
11864 14826 14830 28
11865 14831 14832 28
11866 14831 14833 28
11867 14831 14834 28
11868 14831 14835 28
11869 14836 14837 28
11870 14836 14838 28
11871 14836 14839 28
11872 14836 14840 28
11873 14841 14842 28
11874 14841 14843 28
11875 14841 14844 28
11876 14841 14845 28
11877 14846 14847 28
11878 14846 14848 28
11879 14846 14849 28
11880 14846 14850 28
11881 14851 14852 28
11882 14851 14853 28
11883 14851 14854 28
11884 14851 14855 28
11885 14856 14857 28
11886 14856 14858 28
11887 14856 14859 28
11888 14856 14860 28
11889 14861 14862 28
11890 14861 14863 28
11891 14861 14864 28
11892 14861 14865 28
11893 14866 14867 28
11894 14866 14868 28
11895 14866 14869 28
11896 14866 14870 28
11897 14871 14872 28
11898 14871 14873 28
11899 14871 14874 28
11900 14871 14875 28
11901 14876 14877 28
11902 14876 14878 28
11903 14876 14879 28
11904 14876 14880 28
11905 14881 14882 28
11906 14881 14883 28
11907 14881 14884 28
11908 14881 14885 28
11909 14886 14887 28
11910 14886 14888 28
11911 14886 14889 28
11912 14886 14890 28
11913 14891 14892 28
11914 14891 14893 28
11915 14891 14894 28
11916 14891 14895 28
11917 14896 14897 28
11918 14896 14898 28
11919 14896 14899 28
11920 14896 14900 28
11921 14901 14902 28
11922 14901 14903 28
11923 14901 14904 28
11924 14901 14905 28
11925 14906 14907 28
11926 14906 14908 28
11927 14906 14909 28
11928 14906 14910 28
11929 14911 14912 28
11930 14911 14913 28
11931 14911 14914 28
11932 14911 14915 28
11933 14916 14917 28
11934 14916 14918 28
11935 14916 14919 28
11936 14916 14920 28
11937 14921 14922 28
11938 14921 14923 28
11939 14921 14924 28
11940 14921 14925 28
11941 14926 14927 28
11942 14926 14928 28
11943 14926 14929 28
11944 14926 14930 28
11945 14931 14932 28
11946 14931 14933 28
11947 14931 14934 28
11948 14931 14935 28
11949 14936 14937 28
11950 14936 14938 28
11951 14936 14939 28
11952 14936 14940 28
11953 14941 14942 28
11954 14941 14943 28
11955 14941 14944 28
11956 14941 14945 28
11957 14946 14947 28
11958 14946 14948 28
11959 14946 14949 28
11960 14946 14950 28
11961 14951 14952 28
11962 14951 14953 28
11963 14951 14954 28
11964 14951 14955 28
11965 14956 14957 28
11966 14956 14958 28
11967 14956 14959 28
11968 14956 14960 28
11969 14961 14962 28
11970 14961 14963 28
11971 14961 14964 28
11972 14961 14965 28
11973 14966 14967 28
11974 14966 14968 28
11975 14966 14969 28
11976 14966 14970 28
11977 14971 14972 28
11978 14971 14973 28
11979 14971 14974 28
11980 14971 14975 28
11981 14976 14977 28
11982 14976 14978 28
11983 14976 14979 28
11984 14976 14980 28
11985 14981 14982 28
11986 14981 14983 28
11987 14981 14984 28
11988 14981 14985 28
11989 14986 14987 28
11990 14986 14988 28
11991 14986 14989 28
11992 14986 14990 28
11993 14991 14992 28
11994 14991 14993 28
11995 14991 14994 28
11996 14991 14995 28
11997 14996 14997 28
11998 14996 14998 28
11999 14996 14999 28
12000 14996 15000 28
12001 15001 15002 28
12002 15001 15003 28
12003 15001 15004 28
12004 15001 15005 28
12005 15006 15007 28
12006 15006 15008 28
12007 15006 15009 28
12008 15006 15010 28
12009 15011 15012 28
12010 15011 15013 28
12011 15011 15014 28
12012 15011 15015 28
12013 15016 15017 28
12014 15016 15018 28
12015 15016 15019 28
12016 15016 15020 28
12017 15021 15022 28
12018 15021 15023 28
12019 15021 15024 28
12020 15021 15025 28
12021 15026 15027 28
12022 15026 15028 28
12023 15026 15029 28
12024 15026 15030 28
12025 15031 15032 28
12026 15031 15033 28
12027 15031 15034 28
12028 15031 15035 28
12029 15036 15037 28
12030 15036 15038 28
12031 15036 15039 28
12032 15036 15040 28
12033 15041 15042 28
12034 15041 15043 28
12035 15041 15044 28
12036 15041 15045 28
12037 15046 15047 28
12038 15046 15048 28
12039 15046 15049 28
12040 15046 15050 28
12041 15051 15052 28
12042 15051 15053 28
12043 15051 15054 28
12044 15051 15055 28
12045 15056 15057 28
12046 15056 15058 28
12047 15056 15059 28
12048 15056 15060 28
12049 15061 15062 28
12050 15061 15063 28
12051 15061 15064 28
12052 15061 15065 28
12053 15066 15067 28
12054 15066 15068 28
12055 15066 15069 28
12056 15066 15070 28
12057 15071 15072 28
12058 15071 15073 28
12059 15071 15074 28
12060 15071 15075 28
12061 15076 15077 28
12062 15076 15078 28
12063 15076 15079 28
12064 15076 15080 28
12065 15081 15082 28
12066 15081 15083 28
12067 15081 15084 28
12068 15081 15085 28
12069 15086 15087 28
12070 15086 15088 28
12071 15086 15089 28
12072 15086 15090 28
12073 15091 15092 28
12074 15091 15093 28
12075 15091 15094 28
12076 15091 15095 28
12077 15096 15097 28
12078 15096 15098 28
12079 15096 15099 28
12080 15096 15100 28
12081 15101 15102 28
12082 15101 15103 28
12083 15101 15104 28
12084 15101 15105 28
12085 15106 15107 28
12086 15106 15108 28
12087 15106 15109 28
12088 15106 15110 28
12089 15111 15112 28
12090 15111 15113 28
12091 15111 15114 28
12092 15111 15115 28
12093 15116 15117 28
12094 15116 15118 28
12095 15116 15119 28
12096 15116 15120 28
12097 15121 15122 28
12098 15121 15123 28
12099 15121 15124 28
12100 15121 15125 28
12101 15126 15127 28
12102 15126 15128 28
12103 15126 15129 28
12104 15126 15130 28
12105 15131 15132 28
12106 15131 15133 28
12107 15131 15134 28
12108 15131 15135 28
12109 15136 15137 28
12110 15136 15138 28
12111 15136 15139 28
12112 15136 15140 28
12113 15141 15142 28
12114 15141 15143 28
12115 15141 15144 28
12116 15141 15145 28
12117 15146 15147 28
12118 15146 15148 28
12119 15146 15149 28
12120 15146 15150 28
12121 15151 15152 28
12122 15151 15153 28
12123 15151 15154 28
12124 15151 15155 28
12125 15156 15157 28
12126 15156 15158 28
12127 15156 15159 28
12128 15156 15160 28
12129 15161 15162 28
12130 15161 15163 28
12131 15161 15164 28
12132 15161 15165 28
12133 15166 15167 28
12134 15166 15168 28
12135 15166 15169 28
12136 15166 15170 28
12137 15171 15172 28
12138 15171 15173 28
12139 15171 15174 28
12140 15171 15175 28
12141 15176 15177 28
12142 15176 15178 28
12143 15176 15179 28
12144 15176 15180 28
12145 15181 15182 28
12146 15181 15183 28
12147 15181 15184 28
12148 15181 15185 28
12149 15186 15187 28
12150 15186 15188 28
12151 15186 15189 28
12152 15186 15190 28
12153 15191 15192 28
12154 15191 15193 28
12155 15191 15194 28
12156 15191 15195 28
12157 15196 15197 28
12158 15196 15198 28
12159 15196 15199 28
12160 15196 15200 28
12161 15201 15202 28
12162 15201 15203 28
12163 15201 15204 28
12164 15201 15205 28
12165 15206 15207 28
12166 15206 15208 28
12167 15206 15209 28
12168 15206 15210 28
12169 15211 15212 28
12170 15211 15213 28
12171 15211 15214 28
12172 15211 15215 28
12173 15216 15217 28
12174 15216 15218 28
12175 15216 15219 28
12176 15216 15220 28
12177 15221 15222 28
12178 15221 15223 28
12179 15221 15224 28
12180 15221 15225 28
12181 15226 15227 28
12182 15226 15228 28
12183 15226 15229 28
12184 15226 15230 28
12185 15231 15232 28
12186 15231 15233 28
12187 15231 15234 28
12188 15231 15235 28
12189 15236 15237 28
12190 15236 15238 28
12191 15236 15239 28
12192 15236 15240 28
12193 15241 15242 28
12194 15241 15243 28
12195 15241 15244 28
12196 15241 15245 28
12197 15246 15247 28
12198 15246 15248 28
12199 15246 15249 28
12200 15246 15250 28
12201 15251 15252 28
12202 15251 15253 28
12203 15251 15254 28
12204 15251 15255 28
12205 15256 15257 28
12206 15256 15258 28
12207 15256 15259 28
12208 15256 15260 28
12209 15261 15262 28
12210 15261 15263 28
12211 15261 15264 28
12212 15261 15265 28
12213 15266 15267 28
12214 15266 15268 28
12215 15266 15269 28
12216 15266 15270 28
12217 15271 15272 28
12218 15271 15273 28
12219 15271 15274 28
12220 15271 15275 28
12221 15276 15277 28
12222 15276 15278 28
12223 15276 15279 28
12224 15276 15280 28
12225 15281 15282 28
12226 15281 15283 28
12227 15281 15284 28
12228 15281 15285 28
12229 15286 15287 28
12230 15286 15288 28
12231 15286 15289 28
12232 15286 15290 28
12233 15291 15292 28
12234 15291 15293 28
12235 15291 15294 28
12236 15291 15295 28
12237 15296 15297 28
12238 15296 15298 28
12239 15296 15299 28
12240 15296 15300 28
12241 15301 15302 28
12242 15301 15303 28
12243 15301 15304 28
12244 15301 15305 28
12245 15306 15307 28
12246 15306 15308 28
12247 15306 15309 28
12248 15306 15310 28
12249 15311 15312 28
12250 15311 15313 28
12251 15311 15314 28
12252 15311 15315 28
12253 15316 15317 28
12254 15316 15318 28
12255 15316 15319 28
12256 15316 15320 28
12257 15321 15322 28
12258 15321 15323 28
12259 15321 15324 28
12260 15321 15325 28
12261 15326 15327 28
12262 15326 15328 28
12263 15326 15329 28
12264 15326 15330 28
12265 15331 15332 28
12266 15331 15333 28
12267 15331 15334 28
12268 15331 15335 28
12269 15336 15337 28
12270 15336 15338 28
12271 15336 15339 28
12272 15336 15340 28
12273 15341 15342 28
12274 15341 15343 28
12275 15341 15344 28
12276 15341 15345 28
12277 15346 15347 28
12278 15346 15348 28
12279 15346 15349 28
12280 15346 15350 28
12281 15351 15352 28
12282 15351 15353 28
12283 15351 15354 28
12284 15351 15355 28
12285 15356 15357 28
12286 15356 15358 28
12287 15356 15359 28
12288 15356 15360 28
12289 15361 15362 28
12290 15361 15363 28
12291 15361 15364 28
12292 15361 15365 28
12293 15366 15367 28
12294 15366 15368 28
12295 15366 15369 28
12296 15366 15370 28
12297 15371 15372 28
12298 15371 15373 28
12299 15371 15374 28
12300 15371 15375 28
12301 15376 15377 28
12302 15376 15378 28
12303 15376 15379 28
12304 15376 15380 28
12305 15381 15382 28
12306 15381 15383 28
12307 15381 15384 28
12308 15381 15385 28
12309 15386 15387 28
12310 15386 15388 28
12311 15386 15389 28
12312 15386 15390 28
12313 15391 15392 28
12314 15391 15393 28
12315 15391 15394 28
12316 15391 15395 28
12317 15396 15397 28
12318 15396 15398 28
12319 15396 15399 28
12320 15396 15400 28
12321 15401 15402 28
12322 15401 15403 28
12323 15401 15404 28
12324 15401 15405 28
12325 15406 15407 28
12326 15406 15408 28
12327 15406 15409 28
12328 15406 15410 28
12329 15411 15412 28
12330 15411 15413 28
12331 15411 15414 28
12332 15411 15415 28
12333 15416 15417 28
12334 15416 15418 28
12335 15416 15419 28
12336 15416 15420 28
12337 15421 15422 28
12338 15421 15423 28
12339 15421 15424 28
12340 15421 15425 28
12341 15426 15427 28
12342 15426 15428 28
12343 15426 15429 28
12344 15426 15430 28
12345 15431 15432 28
12346 15431 15433 28
12347 15431 15434 28
12348 15431 15435 28
12349 15436 15437 28
12350 15436 15438 28
12351 15436 15439 28
12352 15436 15440 28
12353 15441 15442 28
12354 15441 15443 28
12355 15441 15444 28
12356 15441 15445 28
12357 15446 15447 28
12358 15446 15448 28
12359 15446 15449 28
12360 15446 15450 28
12361 15451 15452 28
12362 15451 15453 28
12363 15451 15454 28
12364 15451 15455 28
12365 15456 15457 28
12366 15456 15458 28
12367 15456 15459 28
12368 15456 15460 28
12369 15461 15462 28
12370 15461 15463 28
12371 15461 15464 28
12372 15461 15465 28
12373 15466 15467 28
12374 15466 15468 28
12375 15466 15469 28
12376 15466 15470 28
12377 15471 15472 28
12378 15471 15473 28
12379 15471 15474 28
12380 15471 15475 28
12381 15476 15477 28
12382 15476 15478 28
12383 15476 15479 28
12384 15476 15480 28
12385 15481 15482 28
12386 15481 15483 28
12387 15481 15484 28
12388 15481 15485 28
12389 15486 15487 28
12390 15486 15488 28
12391 15486 15489 28
12392 15486 15490 28
12393 15491 15492 28
12394 15491 15493 28
12395 15491 15494 28
12396 15491 15495 28
12397 15496 15497 28
12398 15496 15498 28
12399 15496 15499 28
12400 15496 15500 28
12401 15501 15502 28
12402 15501 15503 28
12403 15501 15504 28
12404 15501 15505 28
12405 15506 15507 28
12406 15506 15508 28
12407 15506 15509 28
12408 15506 15510 28
12409 15511 15512 28
12410 15511 15513 28
12411 15511 15514 28
12412 15511 15515 28
12413 15516 15517 28
12414 15516 15518 28
12415 15516 15519 28
12416 15516 15520 28
12417 15521 15522 28
12418 15521 15523 28
12419 15521 15524 28
12420 15521 15525 28
12421 15526 15527 28
12422 15526 15528 28
12423 15526 15529 28
12424 15526 15530 28
12425 15531 15532 28
12426 15531 15533 28
12427 15531 15534 28
12428 15531 15535 28
12429 15536 15537 28
12430 15536 15538 28
12431 15536 15539 28
12432 15536 15540 28
12433 15541 15542 28
12434 15541 15543 28
12435 15541 15544 28
12436 15541 15545 28
12437 15546 15547 28
12438 15546 15548 28
12439 15546 15549 28
12440 15546 15550 28
12441 15551 15552 28
12442 15551 15553 28
12443 15551 15554 28
12444 15551 15555 28
12445 15556 15557 28
12446 15556 15558 28
12447 15556 15559 28
12448 15556 15560 28
12449 15561 15562 28
12450 15561 15563 28
12451 15561 15564 28
12452 15561 15565 28
12453 15566 15567 28
12454 15566 15568 28
12455 15566 15569 28
12456 15566 15570 28
12457 15571 15572 28
12458 15571 15573 28
12459 15571 15574 28
12460 15571 15575 28
12461 15576 15577 28
12462 15576 15578 28
12463 15576 15579 28
12464 15576 15580 28
12465 15581 15582 28
12466 15581 15583 28
12467 15581 15584 28
12468 15581 15585 28
12469 15586 15587 28
12470 15586 15588 28
12471 15586 15589 28
12472 15586 15590 28
12473 15591 15592 28
12474 15591 15593 28
12475 15591 15594 28
12476 15591 15595 28
12477 15596 15597 28
12478 15596 15598 28
12479 15596 15599 28
12480 15596 15600 28
12481 15601 15602 28
12482 15601 15603 28
12483 15601 15604 28
12484 15601 15605 28
12485 15606 15607 28
12486 15606 15608 28
12487 15606 15609 28
12488 15606 15610 28
12489 15611 15612 28
12490 15611 15613 28
12491 15611 15614 28
12492 15611 15615 28
12493 15616 15617 28
12494 15616 15618 28
12495 15616 15619 28
12496 15616 15620 28
12497 15621 15622 28
12498 15621 15623 28
12499 15621 15624 28
12500 15621 15625 28
12501 15626 15627 28
12502 15626 15628 28
12503 15626 15629 28
12504 15626 15630 28
12505 15631 15632 28
12506 15631 15633 28
12507 15631 15634 28
12508 15631 15635 28
12509 15636 15637 28
12510 15636 15638 28
12511 15636 15639 28
12512 15636 15640 28
12513 15641 15642 28
12514 15641 15643 28
12515 15641 15644 28
12516 15641 15645 28
12517 15646 15647 28
12518 15646 15648 28
12519 15646 15649 28
12520 15646 15650 28
12521 15651 15652 28
12522 15651 15653 28
12523 15651 15654 28
12524 15651 15655 28
12525 15656 15657 28
12526 15656 15658 28
12527 15656 15659 28
12528 15656 15660 28
12529 15661 15662 28
12530 15661 15663 28
12531 15661 15664 28
12532 15661 15665 28
12533 15666 15667 28
12534 15666 15668 28
12535 15666 15669 28
12536 15666 15670 28
12537 15671 15672 28
12538 15671 15673 28
12539 15671 15674 28
12540 15671 15675 28
12541 15676 15677 28
12542 15676 15678 28
12543 15676 15679 28
12544 15676 15680 28
12545 15681 15682 28
12546 15681 15683 28
12547 15681 15684 28
12548 15681 15685 28
12549 15686 15687 28
12550 15686 15688 28
12551 15686 15689 28
12552 15686 15690 28
12553 15691 15692 28
12554 15691 15693 28
12555 15691 15694 28
12556 15691 15695 28
12557 15696 15697 28
12558 15696 15698 28
12559 15696 15699 28
12560 15696 15700 28
12561 15701 15702 28
12562 15701 15703 28
12563 15701 15704 28
12564 15701 15705 28
12565 15706 15707 28
12566 15706 15708 28
12567 15706 15709 28
12568 15706 15710 28
12569 15711 15712 28
12570 15711 15713 28
12571 15711 15714 28
12572 15711 15715 28
12573 15716 15717 28
12574 15716 15718 28
12575 15716 15719 28
12576 15716 15720 28
12577 15721 15722 28
12578 15721 15723 28
12579 15721 15724 28
12580 15721 15725 28
12581 15726 15727 28
12582 15726 15728 28
12583 15726 15729 28
12584 15726 15730 28
12585 15731 15732 28
12586 15731 15733 28
12587 15731 15734 28
12588 15731 15735 28
12589 15736 15737 28
12590 15736 15738 28
12591 15736 15739 28
12592 15736 15740 28
12593 15741 15742 28
12594 15741 15743 28
12595 15741 15744 28
12596 15741 15745 28
12597 15746 15747 28
12598 15746 15748 28
12599 15746 15749 28
12600 15746 15750 28
12601 15751 15752 28
12602 15751 15753 28
12603 15751 15754 28
12604 15751 15755 28
12605 15756 15757 28
12606 15756 15758 28
12607 15756 15759 28
12608 15756 15760 28
12609 15761 15762 28
12610 15761 15763 28
12611 15761 15764 28
12612 15761 15765 28
12613 15766 15767 28
12614 15766 15768 28
12615 15766 15769 28
12616 15766 15770 28
12617 15771 15772 28
12618 15771 15773 28
12619 15771 15774 28
12620 15771 15775 28
12621 15776 15777 28
12622 15776 15778 28
12623 15776 15779 28
12624 15776 15780 28
12625 15781 15782 28
12626 15781 15783 28
12627 15781 15784 28
12628 15781 15785 28
12629 15786 15787 28
12630 15786 15788 28
12631 15786 15789 28
12632 15786 15790 28
12633 15791 15792 28
12634 15791 15793 28
12635 15791 15794 28
12636 15791 15795 28
12637 15796 15797 28
12638 15796 15798 28
12639 15796 15799 28
12640 15796 15800 28
12641 15801 15802 28
12642 15801 15803 28
12643 15801 15804 28
12644 15801 15805 28
12645 15806 15807 28
12646 15806 15808 28
12647 15806 15809 28
12648 15806 15810 28
12649 15811 15812 28
12650 15811 15813 28
12651 15811 15814 28
12652 15811 15815 28
12653 15816 15817 28
12654 15816 15818 28
12655 15816 15819 28
12656 15816 15820 28
12657 15821 15822 28
12658 15821 15823 28
12659 15821 15824 28
12660 15821 15825 28
12661 15826 15827 28
12662 15826 15828 28
12663 15826 15829 28
12664 15826 15830 28
12665 15831 15832 28
12666 15831 15833 28
12667 15831 15834 28
12668 15831 15835 28
12669 15836 15837 28
12670 15836 15838 28
12671 15836 15839 28
12672 15836 15840 28
12673 15841 15842 28
12674 15841 15843 28
12675 15841 15844 28
12676 15841 15845 28
12677 15846 15847 28
12678 15846 15848 28
12679 15846 15849 28
12680 15846 15850 28
12681 15851 15852 28
12682 15851 15853 28
12683 15851 15854 28
12684 15851 15855 28
12685 15856 15857 28
12686 15856 15858 28
12687 15856 15859 28
12688 15856 15860 28
12689 15861 15862 28
12690 15861 15863 28
12691 15861 15864 28
12692 15861 15865 28
12693 15866 15867 28
12694 15866 15868 28
12695 15866 15869 28
12696 15866 15870 28
12697 15871 15872 28
12698 15871 15873 28
12699 15871 15874 28
12700 15871 15875 28
12701 15876 15877 28
12702 15876 15878 28
12703 15876 15879 28
12704 15876 15880 28
12705 15881 15882 28
12706 15881 15883 28
12707 15881 15884 28
12708 15881 15885 28
12709 15886 15887 28
12710 15886 15888 28
12711 15886 15889 28
12712 15886 15890 28
12713 15891 15892 28
12714 15891 15893 28
12715 15891 15894 28
12716 15891 15895 28
12717 15896 15897 28
12718 15896 15898 28
12719 15896 15899 28
12720 15896 15900 28
12721 15901 15902 28
12722 15901 15903 28
12723 15901 15904 28
12724 15901 15905 28
12725 15906 15907 28
12726 15906 15908 28
12727 15906 15909 28
12728 15906 15910 28
12729 15911 15912 28
12730 15911 15913 28
12731 15911 15914 28
12732 15911 15915 28
12733 15916 15917 28
12734 15916 15918 28
12735 15916 15919 28
12736 15916 15920 28
12737 15921 15922 28
12738 15921 15923 28
12739 15921 15924 28
12740 15921 15925 28
12741 15926 15927 28
12742 15926 15928 28
12743 15926 15929 28
12744 15926 15930 28
12745 15931 15932 28
12746 15931 15933 28
12747 15931 15934 28
12748 15931 15935 28
12749 15936 15937 28
12750 15936 15938 28
12751 15936 15939 28
12752 15936 15940 28
12753 15941 15942 28
12754 15941 15943 28
12755 15941 15944 28
12756 15941 15945 28
12757 15946 15947 28
12758 15946 15948 28
12759 15946 15949 28
12760 15946 15950 28
12761 15951 15952 28
12762 15951 15953 28
12763 15951 15954 28
12764 15951 15955 28
12765 15956 15957 28
12766 15956 15958 28
12767 15956 15959 28
12768 15956 15960 28
12769 15961 15962 28
12770 15961 15963 28
12771 15961 15964 28
12772 15961 15965 28
12773 15966 15967 28
12774 15966 15968 28
12775 15966 15969 28
12776 15966 15970 28
12777 15971 15972 28
12778 15971 15973 28
12779 15971 15974 28
12780 15971 15975 28
12781 15976 15977 28
12782 15976 15978 28
12783 15976 15979 28
12784 15976 15980 28
12785 15981 15982 28
12786 15981 15983 28
12787 15981 15984 28
12788 15981 15985 28
12789 15986 15987 28
12790 15986 15988 28
12791 15986 15989 28
12792 15986 15990 28
12793 15991 15992 28
12794 15991 15993 28
12795 15991 15994 28
12796 15991 15995 28
12797 15996 15997 28
12798 15996 15998 28
12799 15996 15999 28
12800 15996 16000 28
12801 16001 16002 28
12802 16001 16003 28
12803 16001 16004 28
12804 16001 16005 28
12805 16006 16007 28
12806 16006 16008 28
12807 16006 16009 28
12808 16006 16010 28
12809 16011 16012 28
12810 16011 16013 28
12811 16011 16014 28
12812 16011 16015 28
12813 16016 16017 28
12814 16016 16018 28
12815 16016 16019 28
12816 16016 16020 28
12817 16021 16022 28
12818 16021 16023 28
12819 16021 16024 28
12820 16021 16025 28
12821 16026 16027 28
12822 16026 16028 28
12823 16026 16029 28
12824 16026 16030 28
12825 16031 16032 28
12826 16031 16033 28
12827 16031 16034 28
12828 16031 16035 28
12829 16036 16037 28
12830 16036 16038 28
12831 16036 16039 28
12832 16036 16040 28
12833 16041 16042 28
12834 16041 16043 28
12835 16041 16044 28
12836 16041 16045 28
12837 16046 16047 28
12838 16046 16048 28
12839 16046 16049 28
12840 16046 16050 28
12841 16051 16052 28
12842 16051 16053 28
12843 16051 16054 28
12844 16051 16055 28
12845 16056 16057 28
12846 16056 16058 28
12847 16056 16059 28
12848 16056 16060 28
12849 16061 16062 28
12850 16061 16063 28
12851 16061 16064 28
12852 16061 16065 28
12853 16066 16067 28
12854 16066 16068 28
12855 16066 16069 28
12856 16066 16070 28
12857 16071 16072 28
12858 16071 16073 28
12859 16071 16074 28
12860 16071 16075 28
12861 16076 16077 28
12862 16076 16078 28
12863 16076 16079 28
12864 16076 16080 28
12865 16081 16082 28
12866 16081 16083 28
12867 16081 16084 28
12868 16081 16085 28
12869 16086 16087 28
12870 16086 16088 28
12871 16086 16089 28
12872 16086 16090 28
12873 16091 16092 28
12874 16091 16093 28
12875 16091 16094 28
12876 16091 16095 28
12877 16096 16097 28
12878 16096 16098 28
12879 16096 16099 28
12880 16096 16100 28
12881 16101 16102 28
12882 16101 16103 28
12883 16101 16104 28
12884 16101 16105 28
12885 16106 16107 28
12886 16106 16108 28
12887 16106 16109 28
12888 16106 16110 28
12889 16111 16112 28
12890 16111 16113 28
12891 16111 16114 28
12892 16111 16115 28
12893 16116 16117 28
12894 16116 16118 28
12895 16116 16119 28
12896 16116 16120 28
12897 16121 16122 28
12898 16121 16123 28
12899 16121 16124 28
12900 16121 16125 28
12901 16126 16127 28
12902 16126 16128 28
12903 16126 16129 28
12904 16126 16130 28
12905 16131 16132 28
12906 16131 16133 28
12907 16131 16134 28
12908 16131 16135 28
12909 16136 16137 28
12910 16136 16138 28
12911 16136 16139 28
12912 16136 16140 28
12913 16141 16142 28
12914 16141 16143 28
12915 16141 16144 28
12916 16141 16145 28
12917 16146 16147 28
12918 16146 16148 28
12919 16146 16149 28
12920 16146 16150 28
12921 16151 16152 28
12922 16151 16153 28
12923 16151 16154 28
12924 16151 16155 28
12925 16156 16157 28
12926 16156 16158 28
12927 16156 16159 28
12928 16156 16160 28
12929 16161 16162 28
12930 16161 16163 28
12931 16161 16164 28
12932 16161 16165 28
12933 16166 16167 28
12934 16166 16168 28
12935 16166 16169 28
12936 16166 16170 28
12937 16171 16172 28
12938 16171 16173 28
12939 16171 16174 28
12940 16171 16175 28
12941 16176 16177 28
12942 16176 16178 28
12943 16176 16179 28
12944 16176 16180 28
12945 16181 16182 28
12946 16181 16183 28
12947 16181 16184 28
12948 16181 16185 28
12949 16186 16187 28
12950 16186 16188 28
12951 16186 16189 28
12952 16186 16190 28
12953 16191 16192 28
12954 16191 16193 28
12955 16191 16194 28
12956 16191 16195 28
12957 16196 16197 28
12958 16196 16198 28
12959 16196 16199 28
12960 16196 16200 28
12961 16201 16202 28
12962 16201 16203 28
12963 16201 16204 28
12964 16201 16205 28
12965 16206 16207 28
12966 16206 16208 28
12967 16206 16209 28
12968 16206 16210 28
12969 16211 16212 28
12970 16211 16213 28
12971 16211 16214 28
12972 16211 16215 28
12973 16216 16217 28
12974 16216 16218 28
12975 16216 16219 28
12976 16216 16220 28
12977 16221 16222 28
12978 16221 16223 28
12979 16221 16224 28
12980 16221 16225 28
12981 16226 16227 28
12982 16226 16228 28
12983 16226 16229 28
12984 16226 16230 28
12985 16231 16232 28
12986 16231 16233 28
12987 16231 16234 28
12988 16231 16235 28
12989 16236 16237 28
12990 16236 16238 28
12991 16236 16239 28
12992 16236 16240 28
12993 16241 16242 28
12994 16241 16243 28
12995 16241 16244 28
12996 16241 16245 28
12997 16246 16247 28
12998 16246 16248 28
12999 16246 16249 28
13000 16246 16250 28
13001 16251 16252 28
13002 16251 16253 28
13003 16251 16254 28
13004 16251 16255 28
13005 16256 16257 28
13006 16256 16258 28
13007 16256 16259 28
13008 16256 16260 28
13009 16261 16262 28
13010 16261 16263 28
13011 16261 16264 28
13012 16261 16265 28
13013 16266 16267 28
13014 16266 16268 28
13015 16266 16269 28
13016 16266 16270 28
13017 16271 16272 28
13018 16271 16273 28
13019 16271 16274 28
13020 16271 16275 28
13021 16276 16277 28
13022 16276 16278 28
13023 16276 16279 28
13024 16276 16280 28
13025 16281 16282 28
13026 16281 16283 28
13027 16281 16284 28
13028 16281 16285 28
13029 16286 16287 28
13030 16286 16288 28
13031 16286 16289 28
13032 16286 16290 28
13033 16291 16292 28
13034 16291 16293 28
13035 16291 16294 28
13036 16291 16295 28
13037 16296 16297 28
13038 16296 16298 28
13039 16296 16299 28
13040 16296 16300 28
13041 16301 16302 28
13042 16301 16303 28
13043 16301 16304 28
13044 16301 16305 28
13045 16306 16307 28
13046 16306 16308 28
13047 16306 16309 28
13048 16306 16310 28
13049 16311 16312 28
13050 16311 16313 28
13051 16311 16314 28
13052 16311 16315 28
13053 16316 16317 28
13054 16316 16318 28
13055 16316 16319 28
13056 16316 16320 28
13057 16321 16322 28
13058 16321 16323 28
13059 16321 16324 28
13060 16321 16325 28
13061 16326 16327 28
13062 16326 16328 28
13063 16326 16329 28
13064 16326 16330 28
13065 16331 16332 28
13066 16331 16333 28
13067 16331 16334 28
13068 16331 16335 28
13069 16336 16337 28
13070 16336 16338 28
13071 16336 16339 28
13072 16336 16340 28
13073 16341 16342 28
13074 16341 16343 28
13075 16341 16344 28
13076 16341 16345 28
13077 16346 16347 28
13078 16346 16348 28
13079 16346 16349 28
13080 16346 16350 28
13081 16351 16352 28
13082 16351 16353 28
13083 16351 16354 28
13084 16351 16355 28
13085 16356 16357 28
13086 16356 16358 28
13087 16356 16359 28
13088 16356 16360 28
13089 16361 16362 28
13090 16361 16363 28
13091 16361 16364 28
13092 16361 16365 28
13093 16366 16367 28
13094 16366 16368 28
13095 16366 16369 28
13096 16366 16370 28
13097 16371 16372 28
13098 16371 16373 28
13099 16371 16374 28
13100 16371 16375 28
13101 16376 16377 28
13102 16376 16378 28
13103 16376 16379 28
13104 16376 16380 28
13105 16381 16382 28
13106 16381 16383 28
13107 16381 16384 28
13108 16381 16385 28
13109 16386 16387 28
13110 16386 16388 28
13111 16386 16389 28
13112 16386 16390 28
13113 16391 16392 28
13114 16391 16393 28
13115 16391 16394 28
13116 16391 16395 28
13117 16396 16397 28
13118 16396 16398 28
13119 16396 16399 28
13120 16396 16400 28
13121 16401 16402 28
13122 16401 16403 28
13123 16401 16404 28
13124 16401 16405 28
13125 16406 16407 28
13126 16406 16408 28
13127 16406 16409 28
13128 16406 16410 28
13129 16411 16412 28
13130 16411 16413 28
13131 16411 16414 28
13132 16411 16415 28
13133 16416 16417 28
13134 16416 16418 28
13135 16416 16419 28
13136 16416 16420 28
13137 16421 16422 28
13138 16421 16423 28
13139 16421 16424 28
13140 16421 16425 28
13141 16426 16427 28
13142 16426 16428 28
13143 16426 16429 28
13144 16426 16430 28
13145 16431 16432 28
13146 16431 16433 28
13147 16431 16434 28
13148 16431 16435 28
13149 16436 16437 28
13150 16436 16438 28
13151 16436 16439 28
13152 16436 16440 28
13153 16441 16442 28
13154 16441 16443 28
13155 16441 16444 28
13156 16441 16445 28
13157 16446 16447 28
13158 16446 16448 28
13159 16446 16449 28
13160 16446 16450 28
13161 16451 16452 28
13162 16451 16453 28
13163 16451 16454 28
13164 16451 16455 28
13165 16456 16457 28
13166 16456 16458 28
13167 16456 16459 28
13168 16456 16460 28
13169 16461 16462 28
13170 16461 16463 28
13171 16461 16464 28
13172 16461 16465 28
13173 16466 16467 28
13174 16466 16468 28
13175 16466 16469 28
13176 16466 16470 28
13177 16471 16472 28
13178 16471 16473 28
13179 16471 16474 28
13180 16471 16475 28
13181 16476 16477 28
13182 16476 16478 28
13183 16476 16479 28
13184 16476 16480 28
13185 16481 16482 28
13186 16481 16483 28
13187 16481 16484 28
13188 16481 16485 28
13189 16486 16487 28
13190 16486 16488 28
13191 16486 16489 28
13192 16486 16490 28
13193 16491 16492 28
13194 16491 16493 28
13195 16491 16494 28
13196 16491 16495 28
13197 16496 16497 28
13198 16496 16498 28
13199 16496 16499 28
13200 16496 16500 28
13201 16501 16502 28
13202 16501 16503 28
13203 16501 16504 28
13204 16501 16505 28
13205 16506 16507 28
13206 16506 16508 28
13207 16506 16509 28
13208 16506 16510 28
13209 16511 16512 28
13210 16511 16513 28
13211 16511 16514 28
13212 16511 16515 28
13213 16516 16517 28
13214 16516 16518 28
13215 16516 16519 28
13216 16516 16520 28
13217 16521 16522 28
13218 16521 16523 28
13219 16521 16524 28
13220 16521 16525 28
13221 16526 16527 28
13222 16526 16528 28
13223 16526 16529 28
13224 16526 16530 28
13225 16531 16532 28
13226 16531 16533 28
13227 16531 16534 28
13228 16531 16535 28
13229 16536 16537 28
13230 16536 16538 28
13231 16536 16539 28
13232 16536 16540 28
13233 16541 16542 28
13234 16541 16543 28
13235 16541 16544 28
13236 16541 16545 28
13237 16546 16547 28
13238 16546 16548 28
13239 16546 16549 28
13240 16546 16550 28
13241 16551 16552 28
13242 16551 16553 28
13243 16551 16554 28
13244 16551 16555 28
13245 16556 16557 28
13246 16556 16558 28
13247 16556 16559 28
13248 16556 16560 28
13249 16561 16562 28
13250 16561 16563 28
13251 16561 16564 28
13252 16561 16565 28
13253 16566 16567 28
13254 16566 16568 28
13255 16566 16569 28
13256 16566 16570 28
13257 16571 16572 28
13258 16571 16573 28
13259 16571 16574 28
13260 16571 16575 28
13261 16576 16577 28
13262 16576 16578 28
13263 16576 16579 28
13264 16576 16580 28
13265 16581 16582 28
13266 16581 16583 28
13267 16581 16584 28
13268 16581 16585 28
13269 16586 16587 28
13270 16586 16588 28
13271 16586 16589 28
13272 16586 16590 28
13273 16591 16592 28
13274 16591 16593 28
13275 16591 16594 28
13276 16591 16595 28
13277 16596 16597 28
13278 16596 16598 28
13279 16596 16599 28
13280 16596 16600 28
13281 16601 16602 28
13282 16601 16603 28
13283 16601 16604 28
13284 16601 16605 28
13285 16606 16607 28
13286 16606 16608 28
13287 16606 16609 28
13288 16606 16610 28
13289 16611 16612 28
13290 16611 16613 28
13291 16611 16614 28
13292 16611 16615 28
13293 16616 16617 28
13294 16616 16618 28
13295 16616 16619 28
13296 16616 16620 28
13297 16621 16622 28
13298 16621 16623 28
13299 16621 16624 28
13300 16621 16625 28
13301 16626 16627 28
13302 16626 16628 28
13303 16626 16629 28
13304 16626 16630 28
13305 16631 16632 28
13306 16631 16633 28
13307 16631 16634 28
13308 16631 16635 28
13309 16636 16637 28
13310 16636 16638 28
13311 16636 16639 28
13312 16636 16640 28
13313 16641 16642 28
13314 16641 16643 28
13315 16641 16644 28
13316 16641 16645 28
13317 16646 16647 28
13318 16646 16648 28
13319 16646 16649 28
13320 16646 16650 28
13321 16651 16652 28
13322 16651 16653 28
13323 16651 16654 28
13324 16651 16655 28
13325 16656 16657 28
13326 16656 16658 28
13327 16656 16659 28
13328 16656 16660 28
13329 16661 16662 28
13330 16661 16663 28
13331 16661 16664 28
13332 16661 16665 28
13333 16666 16667 28
13334 16666 16668 28
13335 16666 16669 28
13336 16666 16670 28
13337 16671 16672 28
13338 16671 16673 28
13339 16671 16674 28
13340 16671 16675 28
13341 16676 16677 28
13342 16676 16678 28
13343 16676 16679 28
13344 16676 16680 28
13345 16681 16682 28
13346 16681 16683 28
13347 16681 16684 28
13348 16681 16685 28
13349 16686 16687 28
13350 16686 16688 28
13351 16686 16689 28
13352 16686 16690 28
13353 16691 16692 28
13354 16691 16693 28
13355 16691 16694 28
13356 16691 16695 28
13357 16696 16697 28
13358 16696 16698 28
13359 16696 16699 28
13360 16696 16700 28
13361 16701 16702 28
13362 16701 16703 28
13363 16701 16704 28
13364 16701 16705 28
13365 16706 16707 28
13366 16706 16708 28
13367 16706 16709 28
13368 16706 16710 28
13369 16711 16712 28
13370 16711 16713 28
13371 16711 16714 28
13372 16711 16715 28
13373 16716 16717 28
13374 16716 16718 28
13375 16716 16719 28
13376 16716 16720 28
13377 16721 16722 28
13378 16721 16723 28
13379 16721 16724 28
13380 16721 16725 28
13381 16726 16727 28
13382 16726 16728 28
13383 16726 16729 28
13384 16726 16730 28
13385 16731 16732 28
13386 16731 16733 28
13387 16731 16734 28
13388 16731 16735 28
13389 16736 16737 28
13390 16736 16738 28
13391 16736 16739 28
13392 16736 16740 28
13393 16741 16742 28
13394 16741 16743 28
13395 16741 16744 28
13396 16741 16745 28
13397 16746 16747 28
13398 16746 16748 28
13399 16746 16749 28
13400 16746 16750 28
13401 16751 16752 28
13402 16751 16753 28
13403 16751 16754 28
13404 16751 16755 28
13405 16756 16757 28
13406 16756 16758 28
13407 16756 16759 28
13408 16756 16760 28
13409 16761 16762 28
13410 16761 16763 28
13411 16761 16764 28
13412 16761 16765 28
13413 16766 16767 28
13414 16766 16768 28
13415 16766 16769 28
13416 16766 16770 28
13417 16771 16772 28
13418 16771 16773 28
13419 16771 16774 28
13420 16771 16775 28
13421 16776 16777 28
13422 16776 16778 28
13423 16776 16779 28
13424 16776 16780 28
13425 16781 16782 28
13426 16781 16783 28
13427 16781 16784 28
13428 16781 16785 28
13429 16786 16787 28
13430 16786 16788 28
13431 16786 16789 28
13432 16786 16790 28
13433 16791 16792 28
13434 16791 16793 28
13435 16791 16794 28
13436 16791 16795 28
13437 16796 16797 28
13438 16796 16798 28
13439 16796 16799 28
13440 16796 16800 28
13441 16801 16802 28
13442 16801 16803 28
13443 16801 16804 28
13444 16801 16805 28
13445 16806 16807 28
13446 16806 16808 28
13447 16806 16809 28
13448 16806 16810 28
13449 16811 16812 28
13450 16811 16813 28
13451 16811 16814 28
13452 16811 16815 28
13453 16816 16817 28
13454 16816 16818 28
13455 16816 16819 28
13456 16816 16820 28
13457 16821 16822 28
13458 16821 16823 28
13459 16821 16824 28
13460 16821 16825 28
13461 16826 16827 28
13462 16826 16828 28
13463 16826 16829 28
13464 16826 16830 28
13465 16831 16832 28
13466 16831 16833 28
13467 16831 16834 28
13468 16831 16835 28
13469 16836 16837 28
13470 16836 16838 28
13471 16836 16839 28
13472 16836 16840 28
13473 16841 16842 28
13474 16841 16843 28
13475 16841 16844 28
13476 16841 16845 28
13477 16846 16847 28
13478 16846 16848 28
13479 16846 16849 28
13480 16846 16850 28
13481 16851 16852 28
13482 16851 16853 28
13483 16851 16854 28
13484 16851 16855 28
13485 16856 16857 28
13486 16856 16858 28
13487 16856 16859 28
13488 16856 16860 28
13489 16861 16862 28
13490 16861 16863 28
13491 16861 16864 28
13492 16861 16865 28
13493 16866 16867 28
13494 16866 16868 28
13495 16866 16869 28
13496 16866 16870 28
13497 16871 16872 28
13498 16871 16873 28
13499 16871 16874 28
13500 16871 16875 28
13501 16876 16877 28
13502 16876 16878 28
13503 16876 16879 28
13504 16876 16880 28
13505 16881 16882 28
13506 16881 16883 28
13507 16881 16884 28
13508 16881 16885 28
13509 16886 16887 28
13510 16886 16888 28
13511 16886 16889 28
13512 16886 16890 28
13513 16891 16892 28
13514 16891 16893 28
13515 16891 16894 28
13516 16891 16895 28
13517 16896 16897 28
13518 16896 16898 28
13519 16896 16899 28
13520 16896 16900 28
13521 16901 16902 28
13522 16901 16903 28
13523 16901 16904 28
13524 16901 16905 28
13525 16906 16907 28
13526 16906 16908 28
13527 16906 16909 28
13528 16906 16910 28
13529 16911 16912 28
13530 16911 16913 28
13531 16911 16914 28
13532 16911 16915 28
13533 16916 16917 28
13534 16916 16918 28
13535 16916 16919 28
13536 16916 16920 28
13537 16921 16922 28
13538 16921 16923 28
13539 16921 16924 28
13540 16921 16925 28
13541 16926 16927 28
13542 16926 16928 28
13543 16926 16929 28
13544 16926 16930 28
13545 16931 16932 28
13546 16931 16933 28
13547 16931 16934 28
13548 16931 16935 28
13549 16936 16937 28
13550 16936 16938 28
13551 16936 16939 28
13552 16936 16940 28
13553 16941 16942 28
13554 16941 16943 28
13555 16941 16944 28
13556 16941 16945 28
13557 16946 16947 28
13558 16946 16948 28
13559 16946 16949 28
13560 16946 16950 28
13561 16951 16952 28
13562 16951 16953 28
13563 16951 16954 28
13564 16951 16955 28
13565 16956 16957 28
13566 16956 16958 28
13567 16956 16959 28
13568 16956 16960 28
13569 16961 16962 28
13570 16961 16963 28
13571 16961 16964 28
13572 16961 16965 28
13573 16966 16967 28
13574 16966 16968 28
13575 16966 16969 28
13576 16966 16970 28
13577 16971 16972 28
13578 16971 16973 28
13579 16971 16974 28
13580 16971 16975 28
13581 16976 16977 28
13582 16976 16978 28
13583 16976 16979 28
13584 16976 16980 28
13585 16981 16982 28
13586 16981 16983 28
13587 16981 16984 28
13588 16981 16985 28
13589 16986 16987 28
13590 16986 16988 28
13591 16986 16989 28
13592 16986 16990 28
13593 16991 16992 28
13594 16991 16993 28
13595 16991 16994 28
13596 16991 16995 28
13597 16996 16997 28
13598 16996 16998 28
13599 16996 16999 28
13600 16996 17000 28
13601 17001 17002 28
13602 17001 17003 28
13603 17001 17004 28
13604 17001 17005 28
13605 17006 17007 28
13606 17006 17008 28
13607 17006 17009 28
13608 17006 17010 28
13609 17011 17012 28
13610 17011 17013 28
13611 17011 17014 28
13612 17011 17015 28
13613 17016 17017 28
13614 17016 17018 28
13615 17016 17019 28
13616 17016 17020 28
13617 17021 17022 28
13618 17021 17023 28
13619 17021 17024 28
13620 17021 17025 28
13621 17026 17027 28
13622 17026 17028 28
13623 17026 17029 28
13624 17026 17030 28
13625 17031 17032 28
13626 17031 17033 28
13627 17031 17034 28
13628 17031 17035 28
13629 17036 17037 28
13630 17036 17038 28
13631 17036 17039 28
13632 17036 17040 28
13633 17041 17042 28
13634 17041 17043 28
13635 17041 17044 28
13636 17041 17045 28
13637 17046 17047 28
13638 17046 17048 28
13639 17046 17049 28
13640 17046 17050 28
13641 17051 17052 28
13642 17051 17053 28
13643 17051 17054 28
13644 17051 17055 28
13645 17056 17057 28
13646 17056 17058 28
13647 17056 17059 28
13648 17056 17060 28
13649 17061 17062 28
13650 17061 17063 28
13651 17061 17064 28
13652 17061 17065 28
13653 17066 17067 28
13654 17066 17068 28
13655 17066 17069 28
13656 17066 17070 28
13657 17071 17072 28
13658 17071 17073 28
13659 17071 17074 28
13660 17071 17075 28
13661 17076 17077 28
13662 17076 17078 28
13663 17076 17079 28
13664 17076 17080 28
13665 17081 17082 28
13666 17081 17083 28
13667 17081 17084 28
13668 17081 17085 28
13669 17086 17087 28
13670 17086 17088 28
13671 17086 17089 28
13672 17086 17090 28
13673 17091 17092 28
13674 17091 17093 28
13675 17091 17094 28
13676 17091 17095 28
13677 17096 17097 28
13678 17096 17098 28
13679 17096 17099 28
13680 17096 17100 28
13681 17101 17102 28
13682 17101 17103 28
13683 17101 17104 28
13684 17101 17105 28
13685 17106 17107 28
13686 17106 17108 28
13687 17106 17109 28
13688 17106 17110 28
13689 17111 17112 28
13690 17111 17113 28
13691 17111 17114 28
13692 17111 17115 28
13693 17116 17117 28
13694 17116 17118 28
13695 17116 17119 28
13696 17116 17120 28
13697 17121 17122 28
13698 17121 17123 28
13699 17121 17124 28
13700 17121 17125 28
13701 17126 17127 28
13702 17126 17128 28
13703 17126 17129 28
13704 17126 17130 28
13705 17131 17132 28
13706 17131 17133 28
13707 17131 17134 28
13708 17131 17135 28
13709 17136 17137 28
13710 17136 17138 28
13711 17136 17139 28
13712 17136 17140 28
13713 17141 17142 28
13714 17141 17143 28
13715 17141 17144 28
13716 17141 17145 28
13717 17146 17147 28
13718 17146 17148 28
13719 17146 17149 28
13720 17146 17150 28
13721 17151 17152 28
13722 17151 17153 28
13723 17151 17154 28
13724 17151 17155 28
13725 17156 17157 28
13726 17156 17158 28
13727 17156 17159 28
13728 17156 17160 28
13729 17161 17162 28
13730 17161 17163 28
13731 17161 17164 28
13732 17161 17165 28
13733 17166 17167 28
13734 17166 17168 28
13735 17166 17169 28
13736 17166 17170 28
13737 17171 17172 28
13738 17171 17173 28
13739 17171 17174 28
13740 17171 17175 28
13741 17176 17177 28
13742 17176 17178 28
13743 17176 17179 28
13744 17176 17180 28
13745 17181 17182 28
13746 17181 17183 28
13747 17181 17184 28
13748 17181 17185 28
13749 17186 17187 28
13750 17186 17188 28
13751 17186 17189 28
13752 17186 17190 28
13753 17191 17192 28
13754 17191 17193 28
13755 17191 17194 28
13756 17191 17195 28
13757 17196 17197 28
13758 17196 17198 28
13759 17196 17199 28
13760 17196 17200 28
13761 17201 17202 28
13762 17201 17203 28
13763 17201 17204 28
13764 17201 17205 28
13765 17206 17207 28
13766 17206 17208 28
13767 17206 17209 28
13768 17206 17210 28
13769 17211 17212 28
13770 17211 17213 28
13771 17211 17214 28
13772 17211 17215 28
13773 17216 17217 28
13774 17216 17218 28
13775 17216 17219 28
13776 17216 17220 28
13777 17221 17222 28
13778 17221 17223 28
13779 17221 17224 28
13780 17221 17225 28
13781 17226 17227 28
13782 17226 17228 28
13783 17226 17229 28
13784 17226 17230 28
13785 17231 17232 28
13786 17231 17233 28
13787 17231 17234 28
13788 17231 17235 28
13789 17236 17237 28
13790 17236 17238 28
13791 17236 17239 28
13792 17236 17240 28
13793 17241 17242 28
13794 17241 17243 28
13795 17241 17244 28
13796 17241 17245 28
13797 17246 17247 28
13798 17246 17248 28
13799 17246 17249 28
13800 17246 17250 28
13801 17251 17252 28
13802 17251 17253 28
13803 17251 17254 28
13804 17251 17255 28
13805 17256 17257 28
13806 17256 17258 28
13807 17256 17259 28
13808 17256 17260 28
13809 17261 17262 28
13810 17261 17263 28
13811 17261 17264 28
13812 17261 17265 28
13813 17266 17267 28
13814 17266 17268 28
13815 17266 17269 28
13816 17266 17270 28
13817 17271 17272 28
13818 17271 17273 28
13819 17271 17274 28
13820 17271 17275 28
13821 17276 17277 28
13822 17276 17278 28
13823 17276 17279 28
13824 17276 17280 28
13825 17281 17282 28
13826 17281 17283 28
13827 17281 17284 28
13828 17281 17285 28
13829 17286 17287 28
13830 17286 17288 28
13831 17286 17289 28
13832 17286 17290 28
13833 17291 17292 28
13834 17291 17293 28
13835 17291 17294 28
13836 17291 17295 28
13837 17296 17297 28
13838 17296 17298 28
13839 17296 17299 28
13840 17296 17300 28
13841 17301 17302 28
13842 17301 17303 28
13843 17301 17304 28
13844 17301 17305 28
13845 17306 17307 28
13846 17306 17308 28
13847 17306 17309 28
13848 17306 17310 28
13849 17311 17312 28
13850 17311 17313 28
13851 17311 17314 28
13852 17311 17315 28
13853 17316 17317 28
13854 17316 17318 28
13855 17316 17319 28
13856 17316 17320 28
13857 17321 17322 28
13858 17321 17323 28
13859 17321 17324 28
13860 17321 17325 28
13861 17326 17327 28
13862 17326 17328 28
13863 17326 17329 28
13864 17326 17330 28
13865 17331 17332 28
13866 17331 17333 28
13867 17331 17334 28
13868 17331 17335 28
13869 17336 17337 28
13870 17336 17338 28
13871 17336 17339 28
13872 17336 17340 28
13873 17341 17342 28
13874 17341 17343 28
13875 17341 17344 28
13876 17341 17345 28
13877 17346 17347 28
13878 17346 17348 28
13879 17346 17349 28
13880 17346 17350 28
13881 17351 17352 28
13882 17351 17353 28
13883 17351 17354 28
13884 17351 17355 28
13885 17356 17357 28
13886 17356 17358 28
13887 17356 17359 28
13888 17356 17360 28
13889 17361 17362 28
13890 17361 17363 28
13891 17361 17364 28
13892 17361 17365 28
13893 17366 17367 28
13894 17366 17368 28
13895 17366 17369 28
13896 17366 17370 28
13897 17371 17372 28
13898 17371 17373 28
13899 17371 17374 28
13900 17371 17375 28
13901 17376 17377 28
13902 17376 17378 28
13903 17376 17379 28
13904 17376 17380 28
13905 17381 17382 28
13906 17381 17383 28
13907 17381 17384 28
13908 17381 17385 28
13909 17386 17387 28
13910 17386 17388 28
13911 17386 17389 28
13912 17386 17390 28
13913 17391 17392 28
13914 17391 17393 28
13915 17391 17394 28
13916 17391 17395 28
13917 17396 17397 28
13918 17396 17398 28
13919 17396 17399 28
13920 17396 17400 28
13921 17401 17402 28
13922 17401 17403 28
13923 17401 17404 28
13924 17401 17405 28
13925 17406 17407 28
13926 17406 17408 28
13927 17406 17409 28
13928 17406 17410 28
13929 17411 17412 28
13930 17411 17413 28
13931 17411 17414 28
13932 17411 17415 28
13933 17416 17417 28
13934 17416 17418 28
13935 17416 17419 28
13936 17416 17420 28
13937 17421 17422 28
13938 17421 17423 28
13939 17421 17424 28
13940 17421 17425 28
13941 17426 17427 28
13942 17426 17428 28
13943 17426 17429 28
13944 17426 17430 28
13945 17431 17432 28
13946 17431 17433 28
13947 17431 17434 28
13948 17431 17435 28
13949 17436 17437 28
13950 17436 17438 28
13951 17436 17439 28
13952 17436 17440 28
13953 17441 17442 28
13954 17441 17443 28
13955 17441 17444 28
13956 17441 17445 28
13957 17446 17447 28
13958 17446 17448 28
13959 17446 17449 28
13960 17446 17450 28
13961 17451 17452 28
13962 17451 17453 28
13963 17451 17454 28
13964 17451 17455 28
13965 17456 17457 28
13966 17456 17458 28
13967 17456 17459 28
13968 17456 17460 28
13969 17461 17462 28
13970 17461 17463 28
13971 17461 17464 28
13972 17461 17465 28
13973 17466 17467 28
13974 17466 17468 28
13975 17466 17469 28
13976 17466 17470 28
13977 17471 17472 28
13978 17471 17473 28
13979 17471 17474 28
13980 17471 17475 28
13981 17476 17477 28
13982 17476 17478 28
13983 17476 17479 28
13984 17476 17480 28
13985 17481 17482 28
13986 17481 17483 28
13987 17481 17484 28
13988 17481 17485 28
13989 17486 17487 28
13990 17486 17488 28
13991 17486 17489 28
13992 17486 17490 28
13993 17491 17492 28
13994 17491 17493 28
13995 17491 17494 28
13996 17491 17495 28
13997 17496 17497 28
13998 17496 17498 28
13999 17496 17499 28
14000 17496 17500 28
14001 17501 17502 28
14002 17501 17503 28
14003 17501 17504 28
14004 17501 17505 28
14005 17506 17507 28
14006 17506 17508 28
14007 17506 17509 28
14008 17506 17510 28
14009 17511 17512 28
14010 17511 17513 28
14011 17511 17514 28
14012 17511 17515 28
14013 17516 17517 28
14014 17516 17518 28
14015 17516 17519 28
14016 17516 17520 28
14017 17521 17522 28
14018 17521 17523 28
14019 17521 17524 28
14020 17521 17525 28
14021 17526 17527 28
14022 17526 17528 28
14023 17526 17529 28
14024 17526 17530 28
14025 17531 17532 28
14026 17531 17533 28
14027 17531 17534 28
14028 17531 17535 28
14029 17536 17537 28
14030 17536 17538 28
14031 17536 17539 28
14032 17536 17540 28
14033 17541 17542 28
14034 17541 17543 28
14035 17541 17544 28
14036 17541 17545 28
14037 17546 17547 28
14038 17546 17548 28
14039 17546 17549 28
14040 17546 17550 28
14041 17551 17552 28
14042 17551 17553 28
14043 17551 17554 28
14044 17551 17555 28
14045 17556 17557 28
14046 17556 17558 28
14047 17556 17559 28
14048 17556 17560 28
14049 17561 17562 28
14050 17561 17563 28
14051 17561 17564 28
14052 17561 17565 28
14053 17566 17567 28
14054 17566 17568 28
14055 17566 17569 28
14056 17566 17570 28
14057 17571 17572 28
14058 17571 17573 28
14059 17571 17574 28
14060 17571 17575 28
14061 17576 17577 28
14062 17576 17578 28
14063 17576 17579 28
14064 17576 17580 28
14065 17581 17582 28
14066 17581 17583 28
14067 17581 17584 28
14068 17581 17585 28
14069 17586 17587 28
14070 17586 17588 28
14071 17586 17589 28
14072 17586 17590 28
14073 17591 17592 28
14074 17591 17593 28
14075 17591 17594 28
14076 17591 17595 28
14077 17596 17597 28
14078 17596 17598 28
14079 17596 17599 28
14080 17596 17600 28
14081 17601 17602 28
14082 17601 17603 28
14083 17601 17604 28
14084 17601 17605 28
14085 17606 17607 28
14086 17606 17608 28
14087 17606 17609 28
14088 17606 17610 28
14089 17611 17612 28
14090 17611 17613 28
14091 17611 17614 28
14092 17611 17615 28
14093 17616 17617 28
14094 17616 17618 28
14095 17616 17619 28
14096 17616 17620 28
14097 17621 17622 28
14098 17621 17623 28
14099 17621 17624 28
14100 17621 17625 28
14101 17626 17627 28
14102 17626 17628 28
14103 17626 17629 28
14104 17626 17630 28
14105 17631 17632 28
14106 17631 17633 28
14107 17631 17634 28
14108 17631 17635 28
14109 17636 17637 28
14110 17636 17638 28
14111 17636 17639 28
14112 17636 17640 28
14113 17641 17642 28
14114 17641 17643 28
14115 17641 17644 28
14116 17641 17645 28
14117 17646 17647 28
14118 17646 17648 28
14119 17646 17649 28
14120 17646 17650 28
14121 17651 17652 28
14122 17651 17653 28
14123 17651 17654 28
14124 17651 17655 28
14125 17656 17657 28
14126 17656 17658 28
14127 17656 17659 28
14128 17656 17660 28
14129 17661 17662 28
14130 17661 17663 28
14131 17661 17664 28
14132 17661 17665 28
14133 17666 17667 28
14134 17666 17668 28
14135 17666 17669 28
14136 17666 17670 28
14137 17671 17672 28
14138 17671 17673 28
14139 17671 17674 28
14140 17671 17675 28
14141 17676 17677 28
14142 17676 17678 28
14143 17676 17679 28
14144 17676 17680 28
14145 17681 17682 28
14146 17681 17683 28
14147 17681 17684 28
14148 17681 17685 28
14149 17686 17687 28
14150 17686 17688 28
14151 17686 17689 28
14152 17686 17690 28
14153 17691 17692 28
14154 17691 17693 28
14155 17691 17694 28
14156 17691 17695 28
14157 17696 17697 28
14158 17696 17698 28
14159 17696 17699 28
14160 17696 17700 28
14161 17701 17702 28
14162 17701 17703 28
14163 17701 17704 28
14164 17701 17705 28
14165 17706 17707 28
14166 17706 17708 28
14167 17706 17709 28
14168 17706 17710 28
14169 17711 17712 28
14170 17711 17713 28
14171 17711 17714 28
14172 17711 17715 28
14173 17716 17717 28
14174 17716 17718 28
14175 17716 17719 28
14176 17716 17720 28
14177 17721 17722 28
14178 17721 17723 28
14179 17721 17724 28
14180 17721 17725 28
14181 17726 17727 28
14182 17726 17728 28
14183 17726 17729 28
14184 17726 17730 28
14185 17731 17732 28
14186 17731 17733 28
14187 17731 17734 28
14188 17731 17735 28
14189 17736 17737 28
14190 17736 17738 28
14191 17736 17739 28
14192 17736 17740 28
14193 17741 17742 28
14194 17741 17743 28
14195 17741 17744 28
14196 17741 17745 28
14197 17746 17747 28
14198 17746 17748 28
14199 17746 17749 28
14200 17746 17750 28
14201 17751 17752 28
14202 17751 17753 28
14203 17751 17754 28
14204 17751 17755 28
14205 17756 17757 28
14206 17756 17758 28
14207 17756 17759 28
14208 17756 17760 28
14209 17761 17762 28
14210 17761 17763 28
14211 17761 17764 28
14212 17761 17765 28
14213 17766 17767 28
14214 17766 17768 28
14215 17766 17769 28
14216 17766 17770 28
14217 17771 17772 28
14218 17771 17773 28
14219 17771 17774 28
14220 17771 17775 28
14221 17776 17777 28
14222 17776 17778 28
14223 17776 17779 28
14224 17776 17780 28
14225 17781 17782 28
14226 17781 17783 28
14227 17781 17784 28
14228 17781 17785 28
14229 17786 17787 28
14230 17786 17788 28
14231 17786 17789 28
14232 17786 17790 28
14233 17791 17792 28
14234 17791 17793 28
14235 17791 17794 28
14236 17791 17795 28
14237 17796 17797 28
14238 17796 17798 28
14239 17796 17799 28
14240 17796 17800 28
14241 17801 17802 28
14242 17801 17803 28
14243 17801 17804 28
14244 17801 17805 28
14245 17806 17807 28
14246 17806 17808 28
14247 17806 17809 28
14248 17806 17810 28
14249 17811 17812 28
14250 17811 17813 28
14251 17811 17814 28
14252 17811 17815 28
14253 17816 17817 28
14254 17816 17818 28
14255 17816 17819 28
14256 17816 17820 28
14257 17821 17822 28
14258 17821 17823 28
14259 17821 17824 28
14260 17821 17825 28
14261 17826 17827 28
14262 17826 17828 28
14263 17826 17829 28
14264 17826 17830 28
14265 17831 17832 28
14266 17831 17833 28
14267 17831 17834 28
14268 17831 17835 28
14269 17836 17837 28
14270 17836 17838 28
14271 17836 17839 28
14272 17836 17840 28
14273 17841 17842 28
14274 17841 17843 28
14275 17841 17844 28
14276 17841 17845 28
14277 17846 17847 28
14278 17846 17848 28
14279 17846 17849 28
14280 17846 17850 28
14281 17851 17852 28
14282 17851 17853 28
14283 17851 17854 28
14284 17851 17855 28
14285 17856 17857 28
14286 17856 17858 28
14287 17856 17859 28
14288 17856 17860 28
14289 17861 17862 28
14290 17861 17863 28
14291 17861 17864 28
14292 17861 17865 28
14293 17866 17867 28
14294 17866 17868 28
14295 17866 17869 28
14296 17866 17870 28
14297 17871 17872 28
14298 17871 17873 28
14299 17871 17874 28
14300 17871 17875 28
14301 17876 17877 28
14302 17876 17878 28
14303 17876 17879 28
14304 17876 17880 28
14305 17881 17882 28
14306 17881 17883 28
14307 17881 17884 28
14308 17881 17885 28
14309 17886 17887 28
14310 17886 17888 28
14311 17886 17889 28
14312 17886 17890 28
14313 17891 17892 28
14314 17891 17893 28
14315 17891 17894 28
14316 17891 17895 28
14317 17896 17897 28
14318 17896 17898 28
14319 17896 17899 28
14320 17896 17900 28
14321 17901 17902 28
14322 17901 17903 28
14323 17901 17904 28
14324 17901 17905 28
14325 17906 17907 28
14326 17906 17908 28
14327 17906 17909 28
14328 17906 17910 28
14329 17911 17912 28
14330 17911 17913 28
14331 17911 17914 28
14332 17911 17915 28
14333 17916 17917 28
14334 17916 17918 28
14335 17916 17919 28
14336 17916 17920 28
14337 17921 17922 28
14338 17921 17923 28
14339 17921 17924 28
14340 17921 17925 28
14341 17926 17927 28
14342 17926 17928 28
14343 17926 17929 28
14344 17926 17930 28
14345 17931 17932 28
14346 17931 17933 28
14347 17931 17934 28
14348 17931 17935 28
14349 17936 17937 28
14350 17936 17938 28
14351 17936 17939 28
14352 17936 17940 28
14353 17941 17942 28
14354 17941 17943 28
14355 17941 17944 28
14356 17941 17945 28
14357 17946 17947 28
14358 17946 17948 28
14359 17946 17949 28
14360 17946 17950 28
14361 17951 17952 28
14362 17951 17953 28
14363 17951 17954 28
14364 17951 17955 28
14365 17956 17957 28
14366 17956 17958 28
14367 17956 17959 28
14368 17956 17960 28
14369 17961 17962 28
14370 17961 17963 28
14371 17961 17964 28
14372 17961 17965 28
14373 17966 17967 28
14374 17966 17968 28
14375 17966 17969 28
14376 17966 17970 28
14377 17971 17972 28
14378 17971 17973 28
14379 17971 17974 28
14380 17971 17975 28
14381 17976 17977 28
14382 17976 17978 28
14383 17976 17979 28
14384 17976 17980 28
14385 17981 17982 28
14386 17981 17983 28
14387 17981 17984 28
14388 17981 17985 28
14389 17986 17987 28
14390 17986 17988 28
14391 17986 17989 28
14392 17986 17990 28
14393 17991 17992 28
14394 17991 17993 28
14395 17991 17994 28
14396 17991 17995 28
14397 17996 17997 28
14398 17996 17998 28
14399 17996 17999 28
14400 17996 18000 28
14401 18001 18002 28
14402 18001 18003 28
14403 18001 18004 28
14404 18001 18005 28
14405 18006 18007 28
14406 18006 18008 28
14407 18006 18009 28
14408 18006 18010 28
14409 18011 18012 28
14410 18011 18013 28
14411 18011 18014 28
14412 18011 18015 28
14413 18016 18017 28
14414 18016 18018 28
14415 18016 18019 28
14416 18016 18020 28
14417 18021 18022 28
14418 18021 18023 28
14419 18021 18024 28
14420 18021 18025 28
14421 18026 18027 28
14422 18026 18028 28
14423 18026 18029 28
14424 18026 18030 28
14425 18031 18032 28
14426 18031 18033 28
14427 18031 18034 28
14428 18031 18035 28
14429 18036 18037 28
14430 18036 18038 28
14431 18036 18039 28
14432 18036 18040 28
14433 18041 18042 28
14434 18041 18043 28
14435 18041 18044 28
14436 18041 18045 28
14437 18046 18047 28
14438 18046 18048 28
14439 18046 18049 28
14440 18046 18050 28
14441 18051 18052 28
14442 18051 18053 28
14443 18051 18054 28
14444 18051 18055 28
14445 18056 18057 28
14446 18056 18058 28
14447 18056 18059 28
14448 18056 18060 28
14449 18061 18062 28
14450 18061 18063 28
14451 18061 18064 28
14452 18061 18065 28
14453 18066 18067 28
14454 18066 18068 28
14455 18066 18069 28
14456 18066 18070 28
14457 18071 18072 28
14458 18071 18073 28
14459 18071 18074 28
14460 18071 18075 28
14461 18076 18077 28
14462 18076 18078 28
14463 18076 18079 28
14464 18076 18080 28
14465 18081 18082 28
14466 18081 18083 28
14467 18081 18084 28
14468 18081 18085 28
14469 18086 18087 28
14470 18086 18088 28
14471 18086 18089 28
14472 18086 18090 28
14473 18091 18092 28
14474 18091 18093 28
14475 18091 18094 28
14476 18091 18095 28
14477 18096 18097 28
14478 18096 18098 28
14479 18096 18099 28
14480 18096 18100 28
14481 18101 18102 28
14482 18101 18103 28
14483 18101 18104 28
14484 18101 18105 28
14485 18106 18107 28
14486 18106 18108 28
14487 18106 18109 28
14488 18106 18110 28
14489 18111 18112 28
14490 18111 18113 28
14491 18111 18114 28
14492 18111 18115 28
14493 18116 18117 28
14494 18116 18118 28
14495 18116 18119 28
14496 18116 18120 28
14497 18121 18122 28
14498 18121 18123 28
14499 18121 18124 28
14500 18121 18125 28
14501 18126 18127 28
14502 18126 18128 28
14503 18126 18129 28
14504 18126 18130 28
14505 18131 18132 28
14506 18131 18133 28
14507 18131 18134 28
14508 18131 18135 28
14509 18136 18137 28
14510 18136 18138 28
14511 18136 18139 28
14512 18136 18140 28
14513 18141 18142 28
14514 18141 18143 28
14515 18141 18144 28
14516 18141 18145 28
14517 18146 18147 28
14518 18146 18148 28
14519 18146 18149 28
14520 18146 18150 28
14521 18151 18152 28
14522 18151 18153 28
14523 18151 18154 28
14524 18151 18155 28
14525 18156 18157 28
14526 18156 18158 28
14527 18156 18159 28
14528 18156 18160 28
14529 18161 18162 28
14530 18161 18163 28
14531 18161 18164 28
14532 18161 18165 28
14533 18166 18167 28
14534 18166 18168 28
14535 18166 18169 28
14536 18166 18170 28
14537 18171 18172 28
14538 18171 18173 28
14539 18171 18174 28
14540 18171 18175 28
14541 18176 18177 28
14542 18176 18178 28
14543 18176 18179 28
14544 18176 18180 28
14545 18181 18182 28
14546 18181 18183 28
14547 18181 18184 28
14548 18181 18185 28
14549 18186 18187 28
14550 18186 18188 28
14551 18186 18189 28
14552 18186 18190 28
14553 18191 18192 28
14554 18191 18193 28
14555 18191 18194 28
14556 18191 18195 28
14557 18196 18197 28
14558 18196 18198 28
14559 18196 18199 28
14560 18196 18200 28
14561 18201 18202 28
14562 18201 18203 28
14563 18201 18204 28
14564 18201 18205 28
14565 18206 18207 28
14566 18206 18208 28
14567 18206 18209 28
14568 18206 18210 28
14569 18211 18212 28
14570 18211 18213 28
14571 18211 18214 28
14572 18211 18215 28
14573 18216 18217 28
14574 18216 18218 28
14575 18216 18219 28
14576 18216 18220 28
14577 18221 18222 28
14578 18221 18223 28
14579 18221 18224 28
14580 18221 18225 28
14581 18226 18227 28
14582 18226 18228 28
14583 18226 18229 28
14584 18226 18230 28
14585 18231 18232 28
14586 18231 18233 28
14587 18231 18234 28
14588 18231 18235 28
14589 18236 18237 28
14590 18236 18238 28
14591 18236 18239 28
14592 18236 18240 28
14593 18241 18242 28
14594 18241 18243 28
14595 18241 18244 28
14596 18241 18245 28
14597 18246 18247 28
14598 18246 18248 28
14599 18246 18249 28
14600 18246 18250 28
14601 18251 18252 28
14602 18251 18253 28
14603 18251 18254 28
14604 18251 18255 28
14605 18256 18257 28
14606 18256 18258 28
14607 18256 18259 28
14608 18256 18260 28
14609 18261 18262 28
14610 18261 18263 28
14611 18261 18264 28
14612 18261 18265 28
14613 18266 18267 28
14614 18266 18268 28
14615 18266 18269 28
14616 18266 18270 28
14617 18271 18272 28
14618 18271 18273 28
14619 18271 18274 28
14620 18271 18275 28
14621 18276 18277 28
14622 18276 18278 28
14623 18276 18279 28
14624 18276 18280 28
14625 18281 18282 28
14626 18281 18283 28
14627 18281 18284 28
14628 18281 18285 28
14629 18286 18287 28
14630 18286 18288 28
14631 18286 18289 28
14632 18286 18290 28
14633 18291 18292 28
14634 18291 18293 28
14635 18291 18294 28
14636 18291 18295 28
14637 18296 18297 28
14638 18296 18298 28
14639 18296 18299 28
14640 18296 18300 28
14641 18301 18302 28
14642 18301 18303 28
14643 18301 18304 28
14644 18301 18305 28
14645 18306 18307 28
14646 18306 18308 28
14647 18306 18309 28
14648 18306 18310 28
14649 18311 18312 28
14650 18311 18313 28
14651 18311 18314 28
14652 18311 18315 28
14653 18316 18317 28
14654 18316 18318 28
14655 18316 18319 28
14656 18316 18320 28
14657 18321 18322 28
14658 18321 18323 28
14659 18321 18324 28
14660 18321 18325 28
14661 18326 18327 28
14662 18326 18328 28
14663 18326 18329 28
14664 18326 18330 28
14665 18331 18332 28
14666 18331 18333 28
14667 18331 18334 28
14668 18331 18335 28
14669 18336 18337 28
14670 18336 18338 28
14671 18336 18339 28
14672 18336 18340 28
14673 18341 18342 28
14674 18341 18343 28
14675 18341 18344 28
14676 18341 18345 28
14677 18346 18347 28
14678 18346 18348 28
14679 18346 18349 28
14680 18346 18350 28
14681 18351 18352 28
14682 18351 18353 28
14683 18351 18354 28
14684 18351 18355 28
14685 18356 18357 28
14686 18356 18358 28
14687 18356 18359 28
14688 18356 18360 28
14689 18361 18362 28
14690 18361 18363 28
14691 18361 18364 28
14692 18361 18365 28
14693 18366 18367 28
14694 18366 18368 28
14695 18366 18369 28
14696 18366 18370 28
14697 18371 18372 28
14698 18371 18373 28
14699 18371 18374 28
14700 18371 18375 28
14701 18376 18377 28
14702 18376 18378 28
14703 18376 18379 28
14704 18376 18380 28
14705 18381 18382 28
14706 18381 18383 28
14707 18381 18384 28
14708 18381 18385 28
14709 18386 18387 28
14710 18386 18388 28
14711 18386 18389 28
14712 18386 18390 28
14713 18391 18392 28
14714 18391 18393 28
14715 18391 18394 28
14716 18391 18395 28
14717 18396 18397 28
14718 18396 18398 28
14719 18396 18399 28
14720 18396 18400 28
14721 18401 18402 28
14722 18401 18403 28
14723 18401 18404 28
14724 18401 18405 28
14725 18406 18407 28
14726 18406 18408 28
14727 18406 18409 28
14728 18406 18410 28
14729 18411 18412 28
14730 18411 18413 28
14731 18411 18414 28
14732 18411 18415 28
14733 18416 18417 28
14734 18416 18418 28
14735 18416 18419 28
14736 18416 18420 28
14737 18421 18422 28
14738 18421 18423 28
14739 18421 18424 28
14740 18421 18425 28
14741 18426 18427 28
14742 18426 18428 28
14743 18426 18429 28
14744 18426 18430 28
14745 18431 18432 28
14746 18431 18433 28
14747 18431 18434 28
14748 18431 18435 28
14749 18436 18437 28
14750 18436 18438 28
14751 18436 18439 28
14752 18436 18440 28
14753 18441 18442 28
14754 18441 18443 28
14755 18441 18444 28
14756 18441 18445 28
14757 18446 18447 28
14758 18446 18448 28
14759 18446 18449 28
14760 18446 18450 28
14761 18451 18452 28
14762 18451 18453 28
14763 18451 18454 28
14764 18451 18455 28
14765 18456 18457 28
14766 18456 18458 28
14767 18456 18459 28
14768 18456 18460 28
14769 18461 18462 28
14770 18461 18463 28
14771 18461 18464 28
14772 18461 18465 28
14773 18466 18467 28
14774 18466 18468 28
14775 18466 18469 28
14776 18466 18470 28
14777 18471 18472 28
14778 18471 18473 28
14779 18471 18474 28
14780 18471 18475 28
14781 18476 18477 28
14782 18476 18478 28
14783 18476 18479 28
14784 18476 18480 28
14785 18481 18482 28
14786 18481 18483 28
14787 18481 18484 28
14788 18481 18485 28
14789 18486 18487 28
14790 18486 18488 28
14791 18486 18489 28
14792 18486 18490 28
14793 18491 18492 28
14794 18491 18493 28
14795 18491 18494 28
14796 18491 18495 28
14797 18496 18497 28
14798 18496 18498 28
14799 18496 18499 28
14800 18496 18500 28
14801 18501 18502 28
14802 18501 18503 28
14803 18501 18504 28
14804 18501 18505 28
14805 18506 18507 28
14806 18506 18508 28
14807 18506 18509 28
14808 18506 18510 28
14809 18511 18512 28
14810 18511 18513 28
14811 18511 18514 28
14812 18511 18515 28
14813 18516 18517 28
14814 18516 18518 28
14815 18516 18519 28
14816 18516 18520 28
14817 18521 18522 28
14818 18521 18523 28
14819 18521 18524 28
14820 18521 18525 28
14821 18526 18527 28
14822 18526 18528 28
14823 18526 18529 28
14824 18526 18530 28
14825 18531 18532 28
14826 18531 18533 28
14827 18531 18534 28
14828 18531 18535 28
14829 18536 18537 28
14830 18536 18538 28
14831 18536 18539 28
14832 18536 18540 28
14833 18541 18542 28
14834 18541 18543 28
14835 18541 18544 28
14836 18541 18545 28
14837 18546 18547 28
14838 18546 18548 28
14839 18546 18549 28
14840 18546 18550 28
14841 18551 18552 28
14842 18551 18553 28
14843 18551 18554 28
14844 18551 18555 28
14845 18556 18557 28
14846 18556 18558 28
14847 18556 18559 28
14848 18556 18560 28
14849 18561 18562 28
14850 18561 18563 28
14851 18561 18564 28
14852 18561 18565 28
14853 18566 18567 28
14854 18566 18568 28
14855 18566 18569 28
14856 18566 18570 28
14857 18571 18572 28
14858 18571 18573 28
14859 18571 18574 28
14860 18571 18575 28
14861 18576 18577 28
14862 18576 18578 28
14863 18576 18579 28
14864 18576 18580 28
14865 18581 18582 28
14866 18581 18583 28
14867 18581 18584 28
14868 18581 18585 28
14869 18586 18587 28
14870 18586 18588 28
14871 18586 18589 28
14872 18586 18590 28
14873 18591 18592 28
14874 18591 18593 28
14875 18591 18594 28
14876 18591 18595 28
14877 18596 18597 28
14878 18596 18598 28
14879 18596 18599 28
14880 18596 18600 28
14881 18601 18602 28
14882 18601 18603 28
14883 18601 18604 28
14884 18601 18605 28
14885 18606 18607 28
14886 18606 18608 28
14887 18606 18609 28
14888 18606 18610 28
14889 18611 18612 28
14890 18611 18613 28
14891 18611 18614 28
14892 18611 18615 28
14893 18616 18617 28
14894 18616 18618 28
14895 18616 18619 28
14896 18616 18620 28
14897 18621 18622 28
14898 18621 18623 28
14899 18621 18624 28
14900 18621 18625 28
14901 18626 18627 28
14902 18626 18628 28
14903 18626 18629 28
14904 18626 18630 28
14905 18631 18632 28
14906 18631 18633 28
14907 18631 18634 28
14908 18631 18635 28
14909 18636 18637 28
14910 18636 18638 28
14911 18636 18639 28
14912 18636 18640 28
14913 18641 18642 28
14914 18641 18643 28
14915 18641 18644 28
14916 18641 18645 28
14917 18646 18647 28
14918 18646 18648 28
14919 18646 18649 28
14920 18646 18650 28
14921 18651 18652 28
14922 18651 18653 28
14923 18651 18654 28
14924 18651 18655 28
14925 18656 18657 28
14926 18656 18658 28
14927 18656 18659 28
14928 18656 18660 28
14929 18661 18662 28
14930 18661 18663 28
14931 18661 18664 28
14932 18661 18665 28
14933 18666 18667 28
14934 18666 18668 28
14935 18666 18669 28
14936 18666 18670 28
14937 18671 18672 28
14938 18671 18673 28
14939 18671 18674 28
14940 18671 18675 28
14941 18676 18677 28
14942 18676 18678 28
14943 18676 18679 28
14944 18676 18680 28
14945 18681 18682 28
14946 18681 18683 28
14947 18681 18684 28
14948 18681 18685 28
14949 18686 18687 28
14950 18686 18688 28
14951 18686 18689 28
14952 18686 18690 28
14953 18691 18692 28
14954 18691 18693 28
14955 18691 18694 28
14956 18691 18695 28
14957 18696 18697 28
14958 18696 18698 28
14959 18696 18699 28
14960 18696 18700 28
14961 18701 18702 28
14962 18701 18703 28
14963 18701 18704 28
14964 18701 18705 28
14965 18706 18707 28
14966 18706 18708 28
14967 18706 18709 28
14968 18706 18710 28
14969 18711 18712 28
14970 18711 18713 28
14971 18711 18714 28
14972 18711 18715 28
14973 18716 18717 28
14974 18716 18718 28
14975 18716 18719 28
14976 18716 18720 28
14977 18721 18722 28
14978 18721 18723 28
14979 18721 18724 28
14980 18721 18725 28
14981 18726 18727 28
14982 18726 18728 28
14983 18726 18729 28
14984 18726 18730 28
14985 18731 18732 28
14986 18731 18733 28
14987 18731 18734 28
14988 18731 18735 28
14989 18736 18737 28
14990 18736 18738 28
14991 18736 18739 28
14992 18736 18740 28
14993 18741 18742 28
14994 18741 18743 28
14995 18741 18744 28
14996 18741 18745 28
14997 18746 18747 28
14998 18746 18748 28
14999 18746 18749 28
15000 18746 18750 28
15001 18751 18752 28
15002 18751 18753 28
15003 18751 18754 28
15004 18751 18755 28
15005 18756 18757 28
15006 18756 18758 28
15007 18756 18759 28
15008 18756 18760 28
15009 18761 18762 28
15010 18761 18763 28
15011 18761 18764 28
15012 18761 18765 28
15013 18766 18767 28
15014 18766 18768 28
15015 18766 18769 28
15016 18766 18770 28
15017 18771 18772 28
15018 18771 18773 28
15019 18771 18774 28
15020 18771 18775 28
15021 18776 18777 28
15022 18776 18778 28
15023 18776 18779 28
15024 18776 18780 28
15025 18781 18782 28
15026 18781 18783 28
15027 18781 18784 28
15028 18781 18785 28
15029 18786 18787 28
15030 18786 18788 28
15031 18786 18789 28
15032 18786 18790 28
15033 18791 18792 28
15034 18791 18793 28
15035 18791 18794 28
15036 18791 18795 28
15037 18796 18797 28
15038 18796 18798 28
15039 18796 18799 28
15040 18796 18800 28
15041 18801 18802 28
15042 18801 18803 28
15043 18801 18804 28
15044 18801 18805 28
15045 18806 18807 28
15046 18806 18808 28
15047 18806 18809 28
15048 18806 18810 28
15049 18811 18812 28
15050 18811 18813 28
15051 18811 18814 28
15052 18811 18815 28
15053 18816 18817 28
15054 18816 18818 28
15055 18816 18819 28
15056 18816 18820 28
15057 18821 18822 28
15058 18821 18823 28
15059 18821 18824 28
15060 18821 18825 28
15061 18826 18827 28
15062 18826 18828 28
15063 18826 18829 28
15064 18826 18830 28
15065 18831 18832 28
15066 18831 18833 28
15067 18831 18834 28
15068 18831 18835 28
15069 18836 18837 28
15070 18836 18838 28
15071 18836 18839 28
15072 18836 18840 28
15073 18841 18842 28
15074 18841 18843 28
15075 18841 18844 28
15076 18841 18845 28
15077 18846 18847 28
15078 18846 18848 28
15079 18846 18849 28
15080 18846 18850 28
15081 18851 18852 28
15082 18851 18853 28
15083 18851 18854 28
15084 18851 18855 28
15085 18856 18857 28
15086 18856 18858 28
15087 18856 18859 28
15088 18856 18860 28
15089 18861 18862 28
15090 18861 18863 28
15091 18861 18864 28
15092 18861 18865 28
15093 18866 18867 28
15094 18866 18868 28
15095 18866 18869 28
15096 18866 18870 28
15097 18871 18872 28
15098 18871 18873 28
15099 18871 18874 28
15100 18871 18875 28
15101 18876 18877 28
15102 18876 18878 28
15103 18876 18879 28
15104 18876 18880 28
15105 18881 18882 28
15106 18881 18883 28
15107 18881 18884 28
15108 18881 18885 28
15109 18886 18887 28
15110 18886 18888 28
15111 18886 18889 28
15112 18886 18890 28
15113 18891 18892 28
15114 18891 18893 28
15115 18891 18894 28
15116 18891 18895 28
15117 18896 18897 28
15118 18896 18898 28
15119 18896 18899 28
15120 18896 18900 28
15121 18901 18902 28
15122 18901 18903 28
15123 18901 18904 28
15124 18901 18905 28
15125 18906 18907 28
15126 18906 18908 28
15127 18906 18909 28
15128 18906 18910 28
15129 18911 18912 28
15130 18911 18913 28
15131 18911 18914 28
15132 18911 18915 28
15133 18916 18917 28
15134 18916 18918 28
15135 18916 18919 28
15136 18916 18920 28
15137 18921 18922 28
15138 18921 18923 28
15139 18921 18924 28
15140 18921 18925 28
15141 18926 18927 28
15142 18926 18928 28
15143 18926 18929 28
15144 18926 18930 28
15145 18931 18932 28
15146 18931 18933 28
15147 18931 18934 28
15148 18931 18935 28
15149 18936 18937 28
15150 18936 18938 28
15151 18936 18939 28
15152 18936 18940 28
15153 18941 18942 28
15154 18941 18943 28
15155 18941 18944 28
15156 18941 18945 28
15157 18946 18947 28
15158 18946 18948 28
15159 18946 18949 28
15160 18946 18950 28
15161 18951 18952 28
15162 18951 18953 28
15163 18951 18954 28
15164 18951 18955 28
15165 18956 18957 28
15166 18956 18958 28
15167 18956 18959 28
15168 18956 18960 28
15169 18961 18962 28
15170 18961 18963 28
15171 18961 18964 28
15172 18961 18965 28
15173 18966 18967 28
15174 18966 18968 28
15175 18966 18969 28
15176 18966 18970 28
15177 18971 18972 28
15178 18971 18973 28
15179 18971 18974 28
15180 18971 18975 28
15181 18976 18977 28
15182 18976 18978 28
15183 18976 18979 28
15184 18976 18980 28
15185 18981 18982 28
15186 18981 18983 28
15187 18981 18984 28
15188 18981 18985 28
15189 18986 18987 28
15190 18986 18988 28
15191 18986 18989 28
15192 18986 18990 28
15193 18991 18992 28
15194 18991 18993 28
15195 18991 18994 28
15196 18991 18995 28
15197 18996 18997 28
15198 18996 18998 28
15199 18996 18999 28
15200 18996 19000 28
15201 19001 19002 28
15202 19001 19003 28
15203 19001 19004 28
15204 19001 19005 28
15205 19006 19007 28
15206 19006 19008 28
15207 19006 19009 28
15208 19006 19010 28
15209 19011 19012 28
15210 19011 19013 28
15211 19011 19014 28
15212 19011 19015 28
15213 19016 19017 28
15214 19016 19018 28
15215 19016 19019 28
15216 19016 19020 28
15217 19021 19022 28
15218 19021 19023 28
15219 19021 19024 28
15220 19021 19025 28
15221 19026 19027 28
15222 19026 19028 28
15223 19026 19029 28
15224 19026 19030 28
15225 19031 19032 28
15226 19031 19033 28
15227 19031 19034 28
15228 19031 19035 28
15229 19036 19037 28
15230 19036 19038 28
15231 19036 19039 28
15232 19036 19040 28
15233 19041 19042 28
15234 19041 19043 28
15235 19041 19044 28
15236 19041 19045 28
15237 19046 19047 28
15238 19046 19048 28
15239 19046 19049 28
15240 19046 19050 28
15241 19051 19052 28
15242 19051 19053 28
15243 19051 19054 28
15244 19051 19055 28
15245 19056 19057 28
15246 19056 19058 28
15247 19056 19059 28
15248 19056 19060 28
15249 19061 19062 28
15250 19061 19063 28
15251 19061 19064 28
15252 19061 19065 28
15253 19066 19067 28
15254 19066 19068 28
15255 19066 19069 28
15256 19066 19070 28
15257 19071 19072 28
15258 19071 19073 28
15259 19071 19074 28
15260 19071 19075 28
15261 19076 19077 28
15262 19076 19078 28
15263 19076 19079 28
15264 19076 19080 28
15265 19081 19082 28
15266 19081 19083 28
15267 19081 19084 28
15268 19081 19085 28
15269 19086 19087 28
15270 19086 19088 28
15271 19086 19089 28
15272 19086 19090 28
15273 19091 19092 28
15274 19091 19093 28
15275 19091 19094 28
15276 19091 19095 28
15277 19096 19097 28
15278 19096 19098 28
15279 19096 19099 28
15280 19096 19100 28
15281 19101 19102 28
15282 19101 19103 28
15283 19101 19104 28
15284 19101 19105 28
15285 19106 19107 28
15286 19106 19108 28
15287 19106 19109 28
15288 19106 19110 28
15289 19111 19112 28
15290 19111 19113 28
15291 19111 19114 28
15292 19111 19115 28
15293 19116 19117 28
15294 19116 19118 28
15295 19116 19119 28
15296 19116 19120 28
15297 19121 19122 28
15298 19121 19123 28
15299 19121 19124 28
15300 19121 19125 28
15301 19126 19127 28
15302 19126 19128 28
15303 19126 19129 28
15304 19126 19130 28
15305 19131 19132 28
15306 19131 19133 28
15307 19131 19134 28
15308 19131 19135 28
15309 19136 19137 28
15310 19136 19138 28
15311 19136 19139 28
15312 19136 19140 28
15313 19141 19142 28
15314 19141 19143 28
15315 19141 19144 28
15316 19141 19145 28
15317 19146 19147 28
15318 19146 19148 28
15319 19146 19149 28
15320 19146 19150 28
15321 19151 19152 28
15322 19151 19153 28
15323 19151 19154 28
15324 19151 19155 28
15325 19156 19157 28
15326 19156 19158 28
15327 19156 19159 28
15328 19156 19160 28
15329 19161 19162 28
15330 19161 19163 28
15331 19161 19164 28
15332 19161 19165 28
15333 19166 19167 28
15334 19166 19168 28
15335 19166 19169 28
15336 19166 19170 28
15337 19171 19172 28
15338 19171 19173 28
15339 19171 19174 28
15340 19171 19175 28
15341 19176 19177 28
15342 19176 19178 28
15343 19176 19179 28
15344 19176 19180 28
15345 19181 19182 28
15346 19181 19183 28
15347 19181 19184 28
15348 19181 19185 28
15349 19186 19187 28
15350 19186 19188 28
15351 19186 19189 28
15352 19186 19190 28
15353 19191 19192 28
15354 19191 19193 28
15355 19191 19194 28
15356 19191 19195 28
15357 19196 19197 28
15358 19196 19198 28
15359 19196 19199 28
15360 19196 19200 28
15361 19201 19202 28
15362 19201 19203 28
15363 19201 19204 28
15364 19201 19205 28
15365 19206 19207 28
15366 19206 19208 28
15367 19206 19209 28
15368 19206 19210 28
15369 19211 19212 28
15370 19211 19213 28
15371 19211 19214 28
15372 19211 19215 28
15373 19216 19217 28
15374 19216 19218 28
15375 19216 19219 28
15376 19216 19220 28
15377 19221 19222 28
15378 19221 19223 28
15379 19221 19224 28
15380 19221 19225 28
15381 19226 19227 28
15382 19226 19228 28
15383 19226 19229 28
15384 19226 19230 28
15385 19231 19232 28
15386 19231 19233 28
15387 19231 19234 28
15388 19231 19235 28
15389 19236 19237 28
15390 19236 19238 28
15391 19236 19239 28
15392 19236 19240 28
15393 19241 19242 28
15394 19241 19243 28
15395 19241 19244 28
15396 19241 19245 28
15397 19246 19247 28
15398 19246 19248 28
15399 19246 19249 28
15400 19246 19250 28
15401 19251 19252 28
15402 19251 19253 28
15403 19251 19254 28
15404 19251 19255 28
15405 19256 19257 28
15406 19256 19258 28
15407 19256 19259 28
15408 19256 19260 28
15409 19261 19262 28
15410 19261 19263 28
15411 19261 19264 28
15412 19261 19265 28
15413 19266 19267 28
15414 19266 19268 28
15415 19266 19269 28
15416 19266 19270 28
15417 19271 19272 28
15418 19271 19273 28
15419 19271 19274 28
15420 19271 19275 28
15421 19276 19277 28
15422 19276 19278 28
15423 19276 19279 28
15424 19276 19280 28
15425 19281 19282 28
15426 19281 19283 28
15427 19281 19284 28
15428 19281 19285 28
15429 19286 19287 28
15430 19286 19288 28
15431 19286 19289 28
15432 19286 19290 28
15433 19291 19292 28
15434 19291 19293 28
15435 19291 19294 28
15436 19291 19295 28
15437 19296 19297 28
15438 19296 19298 28
15439 19296 19299 28
15440 19296 19300 28
15441 19301 19302 28
15442 19301 19303 28
15443 19301 19304 28
15444 19301 19305 28
15445 19306 19307 28
15446 19306 19308 28
15447 19306 19309 28
15448 19306 19310 28
15449 19311 19312 28
15450 19311 19313 28
15451 19311 19314 28
15452 19311 19315 28
15453 19316 19317 28
15454 19316 19318 28
15455 19316 19319 28
15456 19316 19320 28
15457 19321 19322 28
15458 19321 19323 28
15459 19321 19324 28
15460 19321 19325 28
15461 19326 19327 28
15462 19326 19328 28
15463 19326 19329 28
15464 19326 19330 28
15465 19331 19332 28
15466 19331 19333 28
15467 19331 19334 28
15468 19331 19335 28
15469 19336 19337 28
15470 19336 19338 28
15471 19336 19339 28
15472 19336 19340 28
15473 19341 19342 28
15474 19341 19343 28
15475 19341 19344 28
15476 19341 19345 28
15477 19346 19347 28
15478 19346 19348 28
15479 19346 19349 28
15480 19346 19350 28
15481 19351 19352 28
15482 19351 19353 28
15483 19351 19354 28
15484 19351 19355 28
15485 19356 19357 28
15486 19356 19358 28
15487 19356 19359 28
15488 19356 19360 28
15489 19361 19362 28
15490 19361 19363 28
15491 19361 19364 28
15492 19361 19365 28
15493 19366 19367 28
15494 19366 19368 28
15495 19366 19369 28
15496 19366 19370 28
15497 19371 19372 28
15498 19371 19373 28
15499 19371 19374 28
15500 19371 19375 28
15501 19376 19377 28
15502 19376 19378 28
15503 19376 19379 28
15504 19376 19380 28
15505 19381 19382 28
15506 19381 19383 28
15507 19381 19384 28
15508 19381 19385 28
15509 19386 19387 28
15510 19386 19388 28
15511 19386 19389 28
15512 19386 19390 28
15513 19391 19392 28
15514 19391 19393 28
15515 19391 19394 28
15516 19391 19395 28
15517 19396 19397 28
15518 19396 19398 28
15519 19396 19399 28
15520 19396 19400 28
15521 19401 19402 28
15522 19401 19403 28
15523 19401 19404 28
15524 19401 19405 28
15525 19406 19407 28
15526 19406 19408 28
15527 19406 19409 28
15528 19406 19410 28
15529 19411 19412 28
15530 19411 19413 28
15531 19411 19414 28
15532 19411 19415 28
15533 19416 19417 28
15534 19416 19418 28
15535 19416 19419 28
15536 19416 19420 28
15537 19421 19422 28
15538 19421 19423 28
15539 19421 19424 28
15540 19421 19425 28
15541 19426 19427 28
15542 19426 19428 28
15543 19426 19429 28
15544 19426 19430 28
15545 19431 19432 28
15546 19431 19433 28
15547 19431 19434 28
15548 19431 19435 28
15549 19436 19437 28
15550 19436 19438 28
15551 19436 19439 28
15552 19436 19440 28
15553 19441 19442 28
15554 19441 19443 28
15555 19441 19444 28
15556 19441 19445 28
15557 19446 19447 28
15558 19446 19448 28
15559 19446 19449 28
15560 19446 19450 28
15561 19451 19452 28
15562 19451 19453 28
15563 19451 19454 28
15564 19451 19455 28
15565 19456 19457 28
15566 19456 19458 28
15567 19456 19459 28
15568 19456 19460 28
15569 19461 19462 28
15570 19461 19463 28
15571 19461 19464 28
15572 19461 19465 28
15573 19466 19467 28
15574 19466 19468 28
15575 19466 19469 28
15576 19466 19470 28
15577 19471 19472 28
15578 19471 19473 28
15579 19471 19474 28
15580 19471 19475 28
15581 19476 19477 28
15582 19476 19478 28
15583 19476 19479 28
15584 19476 19480 28
15585 19481 19482 28
15586 19481 19483 28
15587 19481 19484 28
15588 19481 19485 28
15589 19486 19487 28
15590 19486 19488 28
15591 19486 19489 28
15592 19486 19490 28
15593 19491 19492 28
15594 19491 19493 28
15595 19491 19494 28
15596 19491 19495 28
15597 19496 19497 28
15598 19496 19498 28
15599 19496 19499 28
15600 19496 19500 28
15601 19501 19502 28
15602 19501 19503 28
15603 19501 19504 28
15604 19501 19505 28
15605 19506 19507 28
15606 19506 19508 28
15607 19506 19509 28
15608 19506 19510 28
15609 19511 19512 28
15610 19511 19513 28
15611 19511 19514 28
15612 19511 19515 28
15613 19516 19517 28
15614 19516 19518 28
15615 19516 19519 28
15616 19516 19520 28
15617 19521 19522 28
15618 19521 19523 28
15619 19521 19524 28
15620 19521 19525 28
15621 19526 19527 28
15622 19526 19528 28
15623 19526 19529 28
15624 19526 19530 28
15625 19531 19532 28
15626 19531 19533 28
15627 19531 19534 28
15628 19531 19535 28
15629 19536 19537 28
15630 19536 19538 28
15631 19536 19539 28
15632 19536 19540 28
15633 19541 19542 28
15634 19541 19543 28
15635 19541 19544 28
15636 19541 19545 28
15637 19546 19547 28
15638 19546 19548 28
15639 19546 19549 28
15640 19546 19550 28
15641 19551 19552 28
15642 19551 19553 28
15643 19551 19554 28
15644 19551 19555 28
15645 19556 19557 28
15646 19556 19558 28
15647 19556 19559 28
15648 19556 19560 28
15649 19561 19562 28
15650 19561 19563 28
15651 19561 19564 28
15652 19561 19565 28
15653 19566 19567 28
15654 19566 19568 28
15655 19566 19569 28
15656 19566 19570 28
15657 19571 19572 28
15658 19571 19573 28
15659 19571 19574 28
15660 19571 19575 28
15661 19576 19577 28
15662 19576 19578 28
15663 19576 19579 28
15664 19576 19580 28
15665 19581 19582 28
15666 19581 19583 28
15667 19581 19584 28
15668 19581 19585 28
15669 19586 19587 28
15670 19586 19588 28
15671 19586 19589 28
15672 19586 19590 28
15673 19591 19592 28
15674 19591 19593 28
15675 19591 19594 28
15676 19591 19595 28
15677 19596 19597 28
15678 19596 19598 28
15679 19596 19599 28
15680 19596 19600 28
15681 19601 19602 28
15682 19601 19603 28
15683 19601 19604 28
15684 19601 19605 28
15685 19606 19607 28
15686 19606 19608 28
15687 19606 19609 28
15688 19606 19610 28
15689 19611 19612 28
15690 19611 19613 28
15691 19611 19614 28
15692 19611 19615 28
15693 19616 19617 28
15694 19616 19618 28
15695 19616 19619 28
15696 19616 19620 28
15697 19621 19622 28
15698 19621 19623 28
15699 19621 19624 28
15700 19621 19625 28
15701 19626 19627 28
15702 19626 19628 28
15703 19626 19629 28
15704 19626 19630 28
15705 19631 19632 28
15706 19631 19633 28
15707 19631 19634 28
15708 19631 19635 28
15709 19636 19637 28
15710 19636 19638 28
15711 19636 19639 28
15712 19636 19640 28
15713 19641 19642 28
15714 19641 19643 28
15715 19641 19644 28
15716 19641 19645 28
15717 19646 19647 28
15718 19646 19648 28
15719 19646 19649 28
15720 19646 19650 28
15721 19651 19652 28
15722 19651 19653 28
15723 19651 19654 28
15724 19651 19655 28
15725 19656 19657 28
15726 19656 19658 28
15727 19656 19659 28
15728 19656 19660 28
15729 19661 19662 28
15730 19661 19663 28
15731 19661 19664 28
15732 19661 19665 28
15733 19666 19667 28
15734 19666 19668 28
15735 19666 19669 28
15736 19666 19670 28
15737 19671 19672 28
15738 19671 19673 28
15739 19671 19674 28
15740 19671 19675 28
15741 19676 19677 28
15742 19676 19678 28
15743 19676 19679 28
15744 19676 19680 28
15745 19681 19682 28
15746 19681 19683 28
15747 19681 19684 28
15748 19681 19685 28
15749 19686 19687 28
15750 19686 19688 28
15751 19686 19689 28
15752 19686 19690 28
15753 19691 19692 28
15754 19691 19693 28
15755 19691 19694 28
15756 19691 19695 28
15757 19696 19697 28
15758 19696 19698 28
15759 19696 19699 28
15760 19696 19700 28
15761 19701 19702 28
15762 19701 19703 28
15763 19701 19704 28
15764 19701 19705 28
15765 19706 19707 28
15766 19706 19708 28
15767 19706 19709 28
15768 19706 19710 28
15769 19711 19712 28
15770 19711 19713 28
15771 19711 19714 28
15772 19711 19715 28
15773 19716 19717 28
15774 19716 19718 28
15775 19716 19719 28
15776 19716 19720 28
15777 19721 19722 28
15778 19721 19723 28
15779 19721 19724 28
15780 19721 19725 28
15781 19726 19727 28
15782 19726 19728 28
15783 19726 19729 28
15784 19726 19730 28
15785 19731 19732 28
15786 19731 19733 28
15787 19731 19734 28
15788 19731 19735 28
15789 19736 19737 28
15790 19736 19738 28
15791 19736 19739 28
15792 19736 19740 28
15793 19741 19742 28
15794 19741 19743 28
15795 19741 19744 28
15796 19741 19745 28
15797 19746 19747 28
15798 19746 19748 28
15799 19746 19749 28
15800 19746 19750 28
15801 19751 19752 28
15802 19751 19753 28
15803 19751 19754 28
15804 19751 19755 28
15805 19756 19757 28
15806 19756 19758 28
15807 19756 19759 28
15808 19756 19760 28
15809 19761 19762 28
15810 19761 19763 28
15811 19761 19764 28
15812 19761 19765 28
15813 19766 19767 28
15814 19766 19768 28
15815 19766 19769 28
15816 19766 19770 28
15817 19771 19772 28
15818 19771 19773 28
15819 19771 19774 28
15820 19771 19775 28
15821 19776 19777 28
15822 19776 19778 28
15823 19776 19779 28
15824 19776 19780 28
15825 19781 19782 28
15826 19781 19783 28
15827 19781 19784 28
15828 19781 19785 28
15829 19786 19787 28
15830 19786 19788 28
15831 19786 19789 28
15832 19786 19790 28
15833 19791 19792 28
15834 19791 19793 28
15835 19791 19794 28
15836 19791 19795 28
15837 19796 19797 28
15838 19796 19798 28
15839 19796 19799 28
15840 19796 19800 28
15841 19801 19802 28
15842 19801 19803 28
15843 19801 19804 28
15844 19801 19805 28
15845 19806 19807 28
15846 19806 19808 28
15847 19806 19809 28
15848 19806 19810 28
15849 19811 19812 28
15850 19811 19813 28
15851 19811 19814 28
15852 19811 19815 28
15853 19816 19817 28
15854 19816 19818 28
15855 19816 19819 28
15856 19816 19820 28
15857 19821 19822 28
15858 19821 19823 28
15859 19821 19824 28
15860 19821 19825 28
15861 19826 19827 28
15862 19826 19828 28
15863 19826 19829 28
15864 19826 19830 28
15865 19831 19832 28
15866 19831 19833 28
15867 19831 19834 28
15868 19831 19835 28
15869 19836 19837 28
15870 19836 19838 28
15871 19836 19839 28
15872 19836 19840 28
15873 19841 19842 28
15874 19841 19843 28
15875 19841 19844 28
15876 19841 19845 28
15877 19846 19847 28
15878 19846 19848 28
15879 19846 19849 28
15880 19846 19850 28
15881 19851 19852 28
15882 19851 19853 28
15883 19851 19854 28
15884 19851 19855 28
15885 19856 19857 28
15886 19856 19858 28
15887 19856 19859 28
15888 19856 19860 28
15889 19861 19862 28
15890 19861 19863 28
15891 19861 19864 28
15892 19861 19865 28
15893 19866 19867 28
15894 19866 19868 28
15895 19866 19869 28
15896 19866 19870 28
15897 19871 19872 28
15898 19871 19873 28
15899 19871 19874 28
15900 19871 19875 28
15901 19876 19877 28
15902 19876 19878 28
15903 19876 19879 28
15904 19876 19880 28
15905 19881 19882 28
15906 19881 19883 28
15907 19881 19884 28
15908 19881 19885 28
15909 19886 19887 28
15910 19886 19888 28
15911 19886 19889 28
15912 19886 19890 28
15913 19891 19892 28
15914 19891 19893 28
15915 19891 19894 28
15916 19891 19895 28
15917 19896 19897 28
15918 19896 19898 28
15919 19896 19899 28
15920 19896 19900 28
15921 19901 19902 28
15922 19901 19903 28
15923 19901 19904 28
15924 19901 19905 28
15925 19906 19907 28
15926 19906 19908 28
15927 19906 19909 28
15928 19906 19910 28
15929 19911 19912 28
15930 19911 19913 28
15931 19911 19914 28
15932 19911 19915 28
15933 19916 19917 28
15934 19916 19918 28
15935 19916 19919 28
15936 19916 19920 28
15937 19921 19922 28
15938 19921 19923 28
15939 19921 19924 28
15940 19921 19925 28
15941 19926 19927 28
15942 19926 19928 28
15943 19926 19929 28
15944 19926 19930 28
15945 19931 19932 28
15946 19931 19933 28
15947 19931 19934 28
15948 19931 19935 28
15949 19936 19937 28
15950 19936 19938 28
15951 19936 19939 28
15952 19936 19940 28
15953 19941 19942 28
15954 19941 19943 28
15955 19941 19944 28
15956 19941 19945 28
15957 19946 19947 28
15958 19946 19948 28
15959 19946 19949 28
15960 19946 19950 28
15961 19951 19952 28
15962 19951 19953 28
15963 19951 19954 28
15964 19951 19955 28
15965 19956 19957 28
15966 19956 19958 28
15967 19956 19959 28
15968 19956 19960 28
15969 19961 19962 28
15970 19961 19963 28
15971 19961 19964 28
15972 19961 19965 28
15973 19966 19967 28
15974 19966 19968 28
15975 19966 19969 28
15976 19966 19970 28
15977 19971 19972 28
15978 19971 19973 28
15979 19971 19974 28
15980 19971 19975 28
15981 19976 19977 28
15982 19976 19978 28
15983 19976 19979 28
15984 19976 19980 28
15985 19981 19982 28
15986 19981 19983 28
15987 19981 19984 28
15988 19981 19985 28
15989 19986 19987 28
15990 19986 19988 28
15991 19986 19989 28
15992 19986 19990 28
15993 19991 19992 28
15994 19991 19993 28
15995 19991 19994 28
15996 19991 19995 28
15997 19996 19997 28
15998 19996 19998 28
15999 19996 19999 28
16000 19996 20000 28
16001 20001 20002 28
16002 20001 20003 28
16003 20001 20004 28
16004 20001 20005 28
16005 20006 20007 28
16006 20006 20008 28
16007 20006 20009 28
16008 20006 20010 28
16009 20011 20012 28
16010 20011 20013 28
16011 20011 20014 28
16012 20011 20015 28
16013 20016 20017 28
16014 20016 20018 28
16015 20016 20019 28
16016 20016 20020 28
16017 20021 20022 28
16018 20021 20023 28
16019 20021 20024 28
16020 20021 20025 28
16021 20026 20027 28
16022 20026 20028 28
16023 20026 20029 28
16024 20026 20030 28
16025 20031 20032 28
16026 20031 20033 28
16027 20031 20034 28
16028 20031 20035 28
16029 20036 20037 28
16030 20036 20038 28
16031 20036 20039 28
16032 20036 20040 28
16033 20041 20042 28
16034 20041 20043 28
16035 20041 20044 28
16036 20041 20045 28
16037 20046 20047 28
16038 20046 20048 28
16039 20046 20049 28
16040 20046 20050 28
16041 20051 20052 28
16042 20051 20053 28
16043 20051 20054 28
16044 20051 20055 28
16045 20056 20057 28
16046 20056 20058 28
16047 20056 20059 28
16048 20056 20060 28
16049 20061 20062 28
16050 20061 20063 28
16051 20061 20064 28
16052 20061 20065 28
16053 20066 20067 28
16054 20066 20068 28
16055 20066 20069 28
16056 20066 20070 28
16057 20071 20072 28
16058 20071 20073 28
16059 20071 20074 28
16060 20071 20075 28
16061 20076 20077 28
16062 20076 20078 28
16063 20076 20079 28
16064 20076 20080 28
16065 20081 20082 28
16066 20081 20083 28
16067 20081 20084 28
16068 20081 20085 28
16069 20086 20087 28
16070 20086 20088 28
16071 20086 20089 28
16072 20086 20090 28
16073 20091 20092 28
16074 20091 20093 28
16075 20091 20094 28
16076 20091 20095 28
16077 20096 20097 28
16078 20096 20098 28
16079 20096 20099 28
16080 20096 20100 28
16081 20101 20102 28
16082 20101 20103 28
16083 20101 20104 28
16084 20101 20105 28
16085 20106 20107 28
16086 20106 20108 28
16087 20106 20109 28
16088 20106 20110 28
16089 20111 20112 28
16090 20111 20113 28
16091 20111 20114 28
16092 20111 20115 28
16093 20116 20117 28
16094 20116 20118 28
16095 20116 20119 28
16096 20116 20120 28
16097 20121 20122 28
16098 20121 20123 28
16099 20121 20124 28
16100 20121 20125 28
16101 20126 20127 28
16102 20126 20128 28
16103 20126 20129 28
16104 20126 20130 28
16105 20131 20132 28
16106 20131 20133 28
16107 20131 20134 28
16108 20131 20135 28
16109 20136 20137 28
16110 20136 20138 28
16111 20136 20139 28
16112 20136 20140 28
16113 20141 20142 28
16114 20141 20143 28
16115 20141 20144 28
16116 20141 20145 28
16117 20146 20147 28
16118 20146 20148 28
16119 20146 20149 28
16120 20146 20150 28
16121 20151 20152 28
16122 20151 20153 28
16123 20151 20154 28
16124 20151 20155 28
16125 20156 20157 28
16126 20156 20158 28
16127 20156 20159 28
16128 20156 20160 28
16129 20161 20162 28
16130 20161 20163 28
16131 20161 20164 28
16132 20161 20165 28
16133 20166 20167 28
16134 20166 20168 28
16135 20166 20169 28
16136 20166 20170 28
16137 20171 20172 28
16138 20171 20173 28
16139 20171 20174 28
16140 20171 20175 28
16141 20176 20177 28
16142 20176 20178 28
16143 20176 20179 28
16144 20176 20180 28
16145 20181 20182 28
16146 20181 20183 28
16147 20181 20184 28
16148 20181 20185 28
16149 20186 20187 28
16150 20186 20188 28
16151 20186 20189 28
16152 20186 20190 28
16153 20191 20192 28
16154 20191 20193 28
16155 20191 20194 28
16156 20191 20195 28
16157 20196 20197 28
16158 20196 20198 28
16159 20196 20199 28
16160 20196 20200 28
16161 20201 20202 28
16162 20201 20203 28
16163 20201 20204 28
16164 20201 20205 28
16165 20206 20207 28
16166 20206 20208 28
16167 20206 20209 28
16168 20206 20210 28
16169 20211 20212 28
16170 20211 20213 28
16171 20211 20214 28
16172 20211 20215 28
16173 20216 20217 28
16174 20216 20218 28
16175 20216 20219 28
16176 20216 20220 28
16177 20221 20222 28
16178 20221 20223 28
16179 20221 20224 28
16180 20221 20225 28
16181 20226 20227 28
16182 20226 20228 28
16183 20226 20229 28
16184 20226 20230 28
16185 20231 20232 28
16186 20231 20233 28
16187 20231 20234 28
16188 20231 20235 28
16189 20236 20237 28
16190 20236 20238 28
16191 20236 20239 28
16192 20236 20240 28
16193 20241 20242 28
16194 20241 20243 28
16195 20241 20244 28
16196 20241 20245 28
16197 20246 20247 28
16198 20246 20248 28
16199 20246 20249 28
16200 20246 20250 28
16201 20251 20252 28
16202 20251 20253 28
16203 20251 20254 28
16204 20251 20255 28
16205 20256 20257 28
16206 20256 20258 28
16207 20256 20259 28
16208 20256 20260 28
16209 20261 20262 28
16210 20261 20263 28
16211 20261 20264 28
16212 20261 20265 28
16213 20266 20267 28
16214 20266 20268 28
16215 20266 20269 28
16216 20266 20270 28
16217 20271 20272 28
16218 20271 20273 28
16219 20271 20274 28
16220 20271 20275 28
16221 20276 20277 28
16222 20276 20278 28
16223 20276 20279 28
16224 20276 20280 28
16225 20281 20282 28
16226 20281 20283 28
16227 20281 20284 28
16228 20281 20285 28
16229 20286 20287 28
16230 20286 20288 28
16231 20286 20289 28
16232 20286 20290 28
16233 20291 20292 28
16234 20291 20293 28
16235 20291 20294 28
16236 20291 20295 28
16237 20296 20297 28
16238 20296 20298 28
16239 20296 20299 28
16240 20296 20300 28
16241 20301 20302 28
16242 20301 20303 28
16243 20301 20304 28
16244 20301 20305 28
16245 20306 20307 28
16246 20306 20308 28
16247 20306 20309 28
16248 20306 20310 28
16249 20311 20312 28
16250 20311 20313 28
16251 20311 20314 28
16252 20311 20315 28
16253 20316 20317 28
16254 20316 20318 28
16255 20316 20319 28
16256 20316 20320 28
16257 20321 20322 28
16258 20321 20323 28
16259 20321 20324 28
16260 20321 20325 28
16261 20326 20327 28
16262 20326 20328 28
16263 20326 20329 28
16264 20326 20330 28
16265 20331 20332 28
16266 20331 20333 28
16267 20331 20334 28
16268 20331 20335 28
16269 20336 20337 28
16270 20336 20338 28
16271 20336 20339 28
16272 20336 20340 28
16273 20341 20342 28
16274 20341 20343 28
16275 20341 20344 28
16276 20341 20345 28
16277 20346 20347 28
16278 20346 20348 28
16279 20346 20349 28
16280 20346 20350 28
16281 20351 20352 28
16282 20351 20353 28
16283 20351 20354 28
16284 20351 20355 28
16285 20356 20357 28
16286 20356 20358 28
16287 20356 20359 28
16288 20356 20360 28
16289 20361 20362 28
16290 20361 20363 28
16291 20361 20364 28
16292 20361 20365 28
16293 20366 20367 28
16294 20366 20368 28
16295 20366 20369 28
16296 20366 20370 28
16297 20371 20372 28
16298 20371 20373 28
16299 20371 20374 28
16300 20371 20375 28
16301 20376 20377 28
16302 20376 20378 28
16303 20376 20379 28
16304 20376 20380 28
16305 20381 20382 28
16306 20381 20383 28
16307 20381 20384 28
16308 20381 20385 28
16309 20386 20387 28
16310 20386 20388 28
16311 20386 20389 28
16312 20386 20390 28
16313 20391 20392 28
16314 20391 20393 28
16315 20391 20394 28
16316 20391 20395 28
16317 20396 20397 28
16318 20396 20398 28
16319 20396 20399 28
16320 20396 20400 28
16321 20401 20402 28
16322 20401 20403 28
16323 20401 20404 28
16324 20401 20405 28
16325 20406 20407 28
16326 20406 20408 28
16327 20406 20409 28
16328 20406 20410 28
16329 20411 20412 28
16330 20411 20413 28
16331 20411 20414 28
16332 20411 20415 28
16333 20416 20417 28
16334 20416 20418 28
16335 20416 20419 28
16336 20416 20420 28
16337 20421 20422 28
16338 20421 20423 28
16339 20421 20424 28
16340 20421 20425 28
16341 20426 20427 28
16342 20426 20428 28
16343 20426 20429 28
16344 20426 20430 28
16345 20431 20432 28
16346 20431 20433 28
16347 20431 20434 28
16348 20431 20435 28
16349 20436 20437 28
16350 20436 20438 28
16351 20436 20439 28
16352 20436 20440 28
16353 20441 20442 28
16354 20441 20443 28
16355 20441 20444 28
16356 20441 20445 28
16357 20446 20447 28
16358 20446 20448 28
16359 20446 20449 28
16360 20446 20450 28
16361 20451 20452 28
16362 20451 20453 28
16363 20451 20454 28
16364 20451 20455 28
16365 20456 20457 28
16366 20456 20458 28
16367 20456 20459 28
16368 20456 20460 28
16369 20461 20462 28
16370 20461 20463 28
16371 20461 20464 28
16372 20461 20465 28
16373 20466 20467 28
16374 20466 20468 28
16375 20466 20469 28
16376 20466 20470 28
16377 20471 20472 28
16378 20471 20473 28
16379 20471 20474 28
16380 20471 20475 28
16381 20476 20477 28
16382 20476 20478 28
16383 20476 20479 28
16384 20476 20480 28
16385 20481 20482 28
16386 20481 20483 28
16387 20481 20484 28
16388 20481 20485 28
16389 20486 20487 28
16390 20486 20488 28
16391 20486 20489 28
16392 20486 20490 28
16393 20491 20492 28
16394 20491 20493 28
16395 20491 20494 28
16396 20491 20495 28
16397 20496 20497 28
16398 20496 20498 28
16399 20496 20499 28
16400 20496 20500 28
16401 20501 20502 28
16402 20501 20503 28
16403 20501 20504 28
16404 20501 20505 28
16405 20506 20507 28
16406 20506 20508 28
16407 20506 20509 28
16408 20506 20510 28
16409 20511 20512 28
16410 20511 20513 28
16411 20511 20514 28
16412 20511 20515 28
16413 20516 20517 28
16414 20516 20518 28
16415 20516 20519 28
16416 20516 20520 28
16417 20521 20522 28
16418 20521 20523 28
16419 20521 20524 28
16420 20521 20525 28
16421 20526 20527 28
16422 20526 20528 28
16423 20526 20529 28
16424 20526 20530 28
16425 20531 20532 28
16426 20531 20533 28
16427 20531 20534 28
16428 20531 20535 28
16429 20536 20537 28
16430 20536 20538 28
16431 20536 20539 28
16432 20536 20540 28
16433 20541 20542 28
16434 20541 20543 28
16435 20541 20544 28
16436 20541 20545 28
16437 20546 20547 28
16438 20546 20548 28
16439 20546 20549 28
16440 20546 20550 28
16441 20551 20552 28
16442 20551 20553 28
16443 20551 20554 28
16444 20551 20555 28
16445 20556 20557 28
16446 20556 20558 28
16447 20556 20559 28
16448 20556 20560 28
16449 20561 20562 28
16450 20561 20563 28
16451 20561 20564 28
16452 20561 20565 28
16453 20566 20567 28
16454 20566 20568 28
16455 20566 20569 28
16456 20566 20570 28
16457 20571 20572 28
16458 20571 20573 28
16459 20571 20574 28
16460 20571 20575 28
16461 20576 20577 28
16462 20576 20578 28
16463 20576 20579 28
16464 20576 20580 28
16465 20581 20582 28
16466 20581 20583 28
16467 20581 20584 28
16468 20581 20585 28
16469 20586 20587 28
16470 20586 20588 28
16471 20586 20589 28
16472 20586 20590 28
16473 20591 20592 28
16474 20591 20593 28
16475 20591 20594 28
16476 20591 20595 28
16477 20596 20597 28
16478 20596 20598 28
16479 20596 20599 28
16480 20596 20600 28
16481 20601 20602 28
16482 20601 20603 28
16483 20601 20604 28
16484 20601 20605 28
16485 20606 20607 28
16486 20606 20608 28
16487 20606 20609 28
16488 20606 20610 28
16489 20611 20612 28
16490 20611 20613 28
16491 20611 20614 28
16492 20611 20615 28
16493 20616 20617 28
16494 20616 20618 28
16495 20616 20619 28
16496 20616 20620 28
16497 20621 20622 28
16498 20621 20623 28
16499 20621 20624 28
16500 20621 20625 28
16501 20626 20627 28
16502 20626 20628 28
16503 20626 20629 28
16504 20626 20630 28
16505 20631 20632 28
16506 20631 20633 28
16507 20631 20634 28
16508 20631 20635 28
16509 20636 20637 28
16510 20636 20638 28
16511 20636 20639 28
16512 20636 20640 28
16513 20641 20642 28
16514 20641 20643 28
16515 20641 20644 28
16516 20641 20645 28
16517 20646 20647 28
16518 20646 20648 28
16519 20646 20649 28
16520 20646 20650 28
16521 20651 20652 28
16522 20651 20653 28
16523 20651 20654 28
16524 20651 20655 28
16525 20656 20657 28
16526 20656 20658 28
16527 20656 20659 28
16528 20656 20660 28
16529 20661 20662 28
16530 20661 20663 28
16531 20661 20664 28
16532 20661 20665 28
16533 20666 20667 28
16534 20666 20668 28
16535 20666 20669 28
16536 20666 20670 28
16537 20671 20672 28
16538 20671 20673 28
16539 20671 20674 28
16540 20671 20675 28
16541 20676 20677 28
16542 20676 20678 28
16543 20676 20679 28
16544 20676 20680 28
16545 20681 20682 28
16546 20681 20683 28
16547 20681 20684 28
16548 20681 20685 28
16549 20686 20687 28
16550 20686 20688 28
16551 20686 20689 28
16552 20686 20690 28
16553 20691 20692 28
16554 20691 20693 28
16555 20691 20694 28
16556 20691 20695 28
16557 20696 20697 28
16558 20696 20698 28
16559 20696 20699 28
16560 20696 20700 28
16561 20701 20702 28
16562 20701 20703 28
16563 20701 20704 28
16564 20701 20705 28
16565 20706 20707 28
16566 20706 20708 28
16567 20706 20709 28
16568 20706 20710 28
16569 20711 20712 28
16570 20711 20713 28
16571 20711 20714 28
16572 20711 20715 28
16573 20716 20717 28
16574 20716 20718 28
16575 20716 20719 28
16576 20716 20720 28
16577 20721 20722 28
16578 20721 20723 28
16579 20721 20724 28
16580 20721 20725 28
16581 20726 20727 28
16582 20726 20728 28
16583 20726 20729 28
16584 20726 20730 28
16585 20731 20732 28
16586 20731 20733 28
16587 20731 20734 28
16588 20731 20735 28
16589 20736 20737 28
16590 20736 20738 28
16591 20736 20739 28
16592 20736 20740 28
16593 20741 20742 28
16594 20741 20743 28
16595 20741 20744 28
16596 20741 20745 28
16597 20746 20747 28
16598 20746 20748 28
16599 20746 20749 28
16600 20746 20750 28
16601 20751 20752 28
16602 20751 20753 28
16603 20751 20754 28
16604 20751 20755 28
16605 20756 20757 28
16606 20756 20758 28
16607 20756 20759 28
16608 20756 20760 28
16609 20761 20762 28
16610 20761 20763 28
16611 20761 20764 28
16612 20761 20765 28
16613 20766 20767 28
16614 20766 20768 28
16615 20766 20769 28
16616 20766 20770 28
16617 20771 20772 28
16618 20771 20773 28
16619 20771 20774 28
16620 20771 20775 28
16621 20776 20777 28
16622 20776 20778 28
16623 20776 20779 28
16624 20776 20780 28
16625 20781 20782 28
16626 20781 20783 28
16627 20781 20784 28
16628 20781 20785 28
16629 20786 20787 28
16630 20786 20788 28
16631 20786 20789 28
16632 20786 20790 28
16633 20791 20792 28
16634 20791 20793 28
16635 20791 20794 28
16636 20791 20795 28
16637 20796 20797 28
16638 20796 20798 28
16639 20796 20799 28
16640 20796 20800 28
16641 20801 20802 28
16642 20801 20803 28
16643 20801 20804 28
16644 20801 20805 28
16645 20806 20807 28
16646 20806 20808 28
16647 20806 20809 28
16648 20806 20810 28
16649 20811 20812 28
16650 20811 20813 28
16651 20811 20814 28
16652 20811 20815 28
16653 20816 20817 28
16654 20816 20818 28
16655 20816 20819 28
16656 20816 20820 28
16657 20821 20822 28
16658 20821 20823 28
16659 20821 20824 28
16660 20821 20825 28
16661 20826 20827 28
16662 20826 20828 28
16663 20826 20829 28
16664 20826 20830 28
16665 20831 20832 28
16666 20831 20833 28
16667 20831 20834 28
16668 20831 20835 28
16669 20836 20837 28
16670 20836 20838 28
16671 20836 20839 28
16672 20836 20840 28
16673 20841 20842 28
16674 20841 20843 28
16675 20841 20844 28
16676 20841 20845 28
16677 20846 20847 28
16678 20846 20848 28
16679 20846 20849 28
16680 20846 20850 28
16681 20851 20852 28
16682 20851 20853 28
16683 20851 20854 28
16684 20851 20855 28
16685 20856 20857 28
16686 20856 20858 28
16687 20856 20859 28
16688 20856 20860 28
16689 20861 20862 28
16690 20861 20863 28
16691 20861 20864 28
16692 20861 20865 28
16693 20866 20867 28
16694 20866 20868 28
16695 20866 20869 28
16696 20866 20870 28
16697 20871 20872 28
16698 20871 20873 28
16699 20871 20874 28
16700 20871 20875 28
16701 20876 20877 28
16702 20876 20878 28
16703 20876 20879 28
16704 20876 20880 28
16705 20881 20882 28
16706 20881 20883 28
16707 20881 20884 28
16708 20881 20885 28
16709 20886 20887 28
16710 20886 20888 28
16711 20886 20889 28
16712 20886 20890 28
16713 20891 20892 28
16714 20891 20893 28
16715 20891 20894 28
16716 20891 20895 28
16717 20896 20897 28
16718 20896 20898 28
16719 20896 20899 28
16720 20896 20900 28
16721 20901 20902 28
16722 20901 20903 28
16723 20901 20904 28
16724 20901 20905 28
16725 20906 20907 28
16726 20906 20908 28
16727 20906 20909 28
16728 20906 20910 28
16729 20911 20912 28
16730 20911 20913 28
16731 20911 20914 28
16732 20911 20915 28
16733 20916 20917 28
16734 20916 20918 28
16735 20916 20919 28
16736 20916 20920 28
16737 20921 20922 28
16738 20921 20923 28
16739 20921 20924 28
16740 20921 20925 28
16741 20926 20927 28
16742 20926 20928 28
16743 20926 20929 28
16744 20926 20930 28
16745 20931 20932 28
16746 20931 20933 28
16747 20931 20934 28
16748 20931 20935 28
16749 20936 20937 28
16750 20936 20938 28
16751 20936 20939 28
16752 20936 20940 28
16753 20941 20942 28
16754 20941 20943 28
16755 20941 20944 28
16756 20941 20945 28
16757 20946 20947 28
16758 20946 20948 28
16759 20946 20949 28
16760 20946 20950 28
16761 20951 20952 28
16762 20951 20953 28
16763 20951 20954 28
16764 20951 20955 28
16765 20956 20957 28
16766 20956 20958 28
16767 20956 20959 28
16768 20956 20960 28
16769 20961 20962 28
16770 20961 20963 28
16771 20961 20964 28
16772 20961 20965 28
16773 20966 20967 28
16774 20966 20968 28
16775 20966 20969 28
16776 20966 20970 28
16777 20971 20972 28
16778 20971 20973 28
16779 20971 20974 28
16780 20971 20975 28
16781 20976 20977 28
16782 20976 20978 28
16783 20976 20979 28
16784 20976 20980 28
16785 20981 20982 28
16786 20981 20983 28
16787 20981 20984 28
16788 20981 20985 28
16789 20986 20987 28
16790 20986 20988 28
16791 20986 20989 28
16792 20986 20990 28
16793 20991 20992 28
16794 20991 20993 28
16795 20991 20994 28
16796 20991 20995 28
16797 20996 20997 28
16798 20996 20998 28
16799 20996 20999 28
16800 20996 21000 28
16801 21001 21002 28
16802 21001 21003 28
16803 21001 21004 28
16804 21001 21005 28
16805 21006 21007 28
16806 21006 21008 28
16807 21006 21009 28
16808 21006 21010 28
16809 21011 21012 28
16810 21011 21013 28
16811 21011 21014 28
16812 21011 21015 28
16813 21016 21017 28
16814 21016 21018 28
16815 21016 21019 28
16816 21016 21020 28
16817 21021 21022 28
16818 21021 21023 28
16819 21021 21024 28
16820 21021 21025 28
16821 21026 21027 28
16822 21026 21028 28
16823 21026 21029 28
16824 21026 21030 28
16825 21031 21032 28
16826 21031 21033 28
16827 21031 21034 28
16828 21031 21035 28
16829 21036 21037 28
16830 21036 21038 28
16831 21036 21039 28
16832 21036 21040 28
16833 21041 21042 28
16834 21041 21043 28
16835 21041 21044 28
16836 21041 21045 28
16837 21046 21047 28
16838 21046 21048 28
16839 21046 21049 28
16840 21046 21050 28
16841 21051 21052 28
16842 21051 21053 28
16843 21051 21054 28
16844 21051 21055 28
16845 21056 21057 28
16846 21056 21058 28
16847 21056 21059 28
16848 21056 21060 28
16849 21061 21062 28
16850 21061 21063 28
16851 21061 21064 28
16852 21061 21065 28
16853 21066 21067 28
16854 21066 21068 28
16855 21066 21069 28
16856 21066 21070 28
16857 21071 21072 28
16858 21071 21073 28
16859 21071 21074 28
16860 21071 21075 28
16861 21076 21077 28
16862 21076 21078 28
16863 21076 21079 28
16864 21076 21080 28
16865 21081 21082 28
16866 21081 21083 28
16867 21081 21084 28
16868 21081 21085 28
16869 21086 21087 28
16870 21086 21088 28
16871 21086 21089 28
16872 21086 21090 28
16873 21091 21092 28
16874 21091 21093 28
16875 21091 21094 28
16876 21091 21095 28
16877 21096 21097 28
16878 21096 21098 28
16879 21096 21099 28
16880 21096 21100 28
16881 21101 21102 28
16882 21101 21103 28
16883 21101 21104 28
16884 21101 21105 28
16885 21106 21107 28
16886 21106 21108 28
16887 21106 21109 28
16888 21106 21110 28
16889 21111 21112 28
16890 21111 21113 28
16891 21111 21114 28
16892 21111 21115 28
16893 21116 21117 28
16894 21116 21118 28
16895 21116 21119 28
16896 21116 21120 28
16897 21121 21122 28
16898 21121 21123 28
16899 21121 21124 28
16900 21121 21125 28
16901 21126 21127 28
16902 21126 21128 28
16903 21126 21129 28
16904 21126 21130 28
16905 21131 21132 28
16906 21131 21133 28
16907 21131 21134 28
16908 21131 21135 28
16909 21136 21137 28
16910 21136 21138 28
16911 21136 21139 28
16912 21136 21140 28
16913 21141 21142 28
16914 21141 21143 28
16915 21141 21144 28
16916 21141 21145 28
16917 21146 21147 28
16918 21146 21148 28
16919 21146 21149 28
16920 21146 21150 28
16921 21151 21152 28
16922 21151 21153 28
16923 21151 21154 28
16924 21151 21155 28
16925 21156 21157 28
16926 21156 21158 28
16927 21156 21159 28
16928 21156 21160 28
16929 21161 21162 28
16930 21161 21163 28
16931 21161 21164 28
16932 21161 21165 28
16933 21166 21167 28
16934 21166 21168 28
16935 21166 21169 28
16936 21166 21170 28
16937 21171 21172 28
16938 21171 21173 28
16939 21171 21174 28
16940 21171 21175 28
16941 21176 21177 28
16942 21176 21178 28
16943 21176 21179 28
16944 21176 21180 28
16945 21181 21182 28
16946 21181 21183 28
16947 21181 21184 28
16948 21181 21185 28
16949 21186 21187 28
16950 21186 21188 28
16951 21186 21189 28
16952 21186 21190 28
16953 21191 21192 28
16954 21191 21193 28
16955 21191 21194 28
16956 21191 21195 28
16957 21196 21197 28
16958 21196 21198 28
16959 21196 21199 28
16960 21196 21200 28
16961 21201 21202 28
16962 21201 21203 28
16963 21201 21204 28
16964 21201 21205 28
16965 21206 21207 28
16966 21206 21208 28
16967 21206 21209 28
16968 21206 21210 28
16969 21211 21212 28
16970 21211 21213 28
16971 21211 21214 28
16972 21211 21215 28
16973 21216 21217 28
16974 21216 21218 28
16975 21216 21219 28
16976 21216 21220 28
16977 21221 21222 28
16978 21221 21223 28
16979 21221 21224 28
16980 21221 21225 28
16981 21226 21227 28
16982 21226 21228 28
16983 21226 21229 28
16984 21226 21230 28
16985 21231 21232 28
16986 21231 21233 28
16987 21231 21234 28
16988 21231 21235 28
16989 21236 21237 28
16990 21236 21238 28
16991 21236 21239 28
16992 21236 21240 28
16993 21241 21242 28
16994 21241 21243 28
16995 21241 21244 28
16996 21241 21245 28
16997 21246 21247 28
16998 21246 21248 28
16999 21246 21249 28
17000 21246 21250 28
17001 21251 21252 28
17002 21251 21253 28
17003 21251 21254 28
17004 21251 21255 28
17005 21256 21257 28
17006 21256 21258 28
17007 21256 21259 28
17008 21256 21260 28
17009 21261 21262 28
17010 21261 21263 28
17011 21261 21264 28
17012 21261 21265 28
17013 21266 21267 28
17014 21266 21268 28
17015 21266 21269 28
17016 21266 21270 28
17017 21271 21272 28
17018 21271 21273 28
17019 21271 21274 28
17020 21271 21275 28
17021 21276 21277 28
17022 21276 21278 28
17023 21276 21279 28
17024 21276 21280 28
17025 21281 21282 28
17026 21281 21283 28
17027 21281 21284 28
17028 21281 21285 28
17029 21286 21287 28
17030 21286 21288 28
17031 21286 21289 28
17032 21286 21290 28
17033 21291 21292 28
17034 21291 21293 28
17035 21291 21294 28
17036 21291 21295 28
17037 21296 21297 28
17038 21296 21298 28
17039 21296 21299 28
17040 21296 21300 28
17041 21301 21302 28
17042 21301 21303 28
17043 21301 21304 28
17044 21301 21305 28
17045 21306 21307 28
17046 21306 21308 28
17047 21306 21309 28
17048 21306 21310 28
17049 21311 21312 28
17050 21311 21313 28
17051 21311 21314 28
17052 21311 21315 28
17053 21316 21317 28
17054 21316 21318 28
17055 21316 21319 28
17056 21316 21320 28
17057 21321 21322 28
17058 21321 21323 28
17059 21321 21324 28
17060 21321 21325 28
17061 21326 21327 28
17062 21326 21328 28
17063 21326 21329 28
17064 21326 21330 28
17065 21331 21332 28
17066 21331 21333 28
17067 21331 21334 28
17068 21331 21335 28
17069 21336 21337 28
17070 21336 21338 28
17071 21336 21339 28
17072 21336 21340 28
17073 21341 21342 28
17074 21341 21343 28
17075 21341 21344 28
17076 21341 21345 28
17077 21346 21347 28
17078 21346 21348 28
17079 21346 21349 28
17080 21346 21350 28
17081 21351 21352 28
17082 21351 21353 28
17083 21351 21354 28
17084 21351 21355 28
17085 21356 21357 28
17086 21356 21358 28
17087 21356 21359 28
17088 21356 21360 28
17089 21361 21362 28
17090 21361 21363 28
17091 21361 21364 28
17092 21361 21365 28
17093 21366 21367 28
17094 21366 21368 28
17095 21366 21369 28
17096 21366 21370 28
17097 21371 21372 28
17098 21371 21373 28
17099 21371 21374 28
17100 21371 21375 28
17101 21376 21377 28
17102 21376 21378 28
17103 21376 21379 28
17104 21376 21380 28
17105 21381 21382 28
17106 21381 21383 28
17107 21381 21384 28
17108 21381 21385 28
17109 21386 21387 28
17110 21386 21388 28
17111 21386 21389 28
17112 21386 21390 28
17113 21391 21392 28
17114 21391 21393 28
17115 21391 21394 28
17116 21391 21395 28
17117 21396 21397 28
17118 21396 21398 28
17119 21396 21399 28
17120 21396 21400 28
17121 21401 21402 28
17122 21401 21403 28
17123 21401 21404 28
17124 21401 21405 28
17125 21406 21407 28
17126 21406 21408 28
17127 21406 21409 28
17128 21406 21410 28
17129 21411 21412 28
17130 21411 21413 28
17131 21411 21414 28
17132 21411 21415 28
17133 21416 21417 28
17134 21416 21418 28
17135 21416 21419 28
17136 21416 21420 28
17137 21421 21422 28
17138 21421 21423 28
17139 21421 21424 28
17140 21421 21425 28
17141 21426 21427 28
17142 21426 21428 28
17143 21426 21429 28
17144 21426 21430 28
17145 21431 21432 28
17146 21431 21433 28
17147 21431 21434 28
17148 21431 21435 28
17149 21436 21437 28
17150 21436 21438 28
17151 21436 21439 28
17152 21436 21440 28
17153 21441 21442 28
17154 21441 21443 28
17155 21441 21444 28
17156 21441 21445 28
17157 21446 21447 28
17158 21446 21448 28
17159 21446 21449 28
17160 21446 21450 28
17161 21451 21452 28
17162 21451 21453 28
17163 21451 21454 28
17164 21451 21455 28
17165 21456 21457 28
17166 21456 21458 28
17167 21456 21459 28
17168 21456 21460 28
17169 21461 21462 28
17170 21461 21463 28
17171 21461 21464 28
17172 21461 21465 28
17173 21466 21467 28
17174 21466 21468 28
17175 21466 21469 28
17176 21466 21470 28
17177 21471 21472 28
17178 21471 21473 28
17179 21471 21474 28
17180 21471 21475 28
17181 21476 21477 28
17182 21476 21478 28
17183 21476 21479 28
17184 21476 21480 28
17185 21481 21482 28
17186 21481 21483 28
17187 21481 21484 28
17188 21481 21485 28
17189 21486 21487 28
17190 21486 21488 28
17191 21486 21489 28
17192 21486 21490 28
17193 21491 21492 28
17194 21491 21493 28
17195 21491 21494 28
17196 21491 21495 28
17197 21496 21497 28
17198 21496 21498 28
17199 21496 21499 28
17200 21496 21500 28
17201 21501 21502 28
17202 21501 21503 28
17203 21501 21504 28
17204 21501 21505 28
17205 21506 21507 28
17206 21506 21508 28
17207 21506 21509 28
17208 21506 21510 28
17209 21511 21512 28
17210 21511 21513 28
17211 21511 21514 28
17212 21511 21515 28
17213 21516 21517 28
17214 21516 21518 28
17215 21516 21519 28
17216 21516 21520 28
17217 21521 21522 28
17218 21521 21523 28
17219 21521 21524 28
17220 21521 21525 28
17221 21526 21527 28
17222 21526 21528 28
17223 21526 21529 28
17224 21526 21530 28
17225 21531 21532 28
17226 21531 21533 28
17227 21531 21534 28
17228 21531 21535 28
17229 21536 21537 28
17230 21536 21538 28
17231 21536 21539 28
17232 21536 21540 28
17233 21541 21542 28
17234 21541 21543 28
17235 21541 21544 28
17236 21541 21545 28
17237 21546 21547 28
17238 21546 21548 28
17239 21546 21549 28
17240 21546 21550 28
17241 21551 21552 28
17242 21551 21553 28
17243 21551 21554 28
17244 21551 21555 28
17245 21556 21557 28
17246 21556 21558 28
17247 21556 21559 28
17248 21556 21560 28
17249 21561 21562 28
17250 21561 21563 28
17251 21561 21564 28
17252 21561 21565 28
17253 21566 21567 28
17254 21566 21568 28
17255 21566 21569 28
17256 21566 21570 28
17257 21571 21572 28
17258 21571 21573 28
17259 21571 21574 28
17260 21571 21575 28
17261 21576 21577 28
17262 21576 21578 28
17263 21576 21579 28
17264 21576 21580 28
17265 21581 21582 28
17266 21581 21583 28
17267 21581 21584 28
17268 21581 21585 28
17269 21586 21587 28
17270 21586 21588 28
17271 21586 21589 28
17272 21586 21590 28
17273 21591 21592 28
17274 21591 21593 28
17275 21591 21594 28
17276 21591 21595 28
17277 21596 21597 28
17278 21596 21598 28
17279 21596 21599 28
17280 21596 21600 28
17281 21601 21602 28
17282 21601 21603 28
17283 21601 21604 28
17284 21601 21605 28
17285 21606 21607 28
17286 21606 21608 28
17287 21606 21609 28
17288 21606 21610 28
17289 21611 21612 28
17290 21611 21613 28
17291 21611 21614 28
17292 21611 21615 28
17293 21616 21617 28
17294 21616 21618 28
17295 21616 21619 28
17296 21616 21620 28
17297 21621 21622 28
17298 21621 21623 28
17299 21621 21624 28
17300 21621 21625 28
17301 21626 21627 28
17302 21626 21628 28
17303 21626 21629 28
17304 21626 21630 28
17305 21631 21632 28
17306 21631 21633 28
17307 21631 21634 28
17308 21631 21635 28
17309 21636 21637 28
17310 21636 21638 28
17311 21636 21639 28
17312 21636 21640 28
17313 21641 21642 28
17314 21641 21643 28
17315 21641 21644 28
17316 21641 21645 28
17317 21646 21647 28
17318 21646 21648 28
17319 21646 21649 28
17320 21646 21650 28
17321 21651 21652 28
17322 21651 21653 28
17323 21651 21654 28
17324 21651 21655 28
17325 21656 21657 28
17326 21656 21658 28
17327 21656 21659 28
17328 21656 21660 28
17329 21661 21662 28
17330 21661 21663 28
17331 21661 21664 28
17332 21661 21665 28
17333 21666 21667 28
17334 21666 21668 28
17335 21666 21669 28
17336 21666 21670 28
17337 21671 21672 28
17338 21671 21673 28
17339 21671 21674 28
17340 21671 21675 28
17341 21676 21677 28
17342 21676 21678 28
17343 21676 21679 28
17344 21676 21680 28
17345 21681 21682 28
17346 21681 21683 28
17347 21681 21684 28
17348 21681 21685 28
17349 21686 21687 28
17350 21686 21688 28
17351 21686 21689 28
17352 21686 21690 28
17353 21691 21692 28
17354 21691 21693 28
17355 21691 21694 28
17356 21691 21695 28
17357 21696 21697 28
17358 21696 21698 28
17359 21696 21699 28
17360 21696 21700 28
17361 21701 21702 28
17362 21701 21703 28
17363 21701 21704 28
17364 21701 21705 28
17365 21706 21707 28
17366 21706 21708 28
17367 21706 21709 28
17368 21706 21710 28
17369 21711 21712 28
17370 21711 21713 28
17371 21711 21714 28
17372 21711 21715 28
17373 21716 21717 28
17374 21716 21718 28
17375 21716 21719 28
17376 21716 21720 28
17377 21721 21722 28
17378 21721 21723 28
17379 21721 21724 28
17380 21721 21725 28
17381 21726 21727 28
17382 21726 21728 28
17383 21726 21729 28
17384 21726 21730 28
17385 21731 21732 28
17386 21731 21733 28
17387 21731 21734 28
17388 21731 21735 28
17389 21736 21737 28
17390 21736 21738 28
17391 21736 21739 28
17392 21736 21740 28
17393 21741 21742 28
17394 21741 21743 28
17395 21741 21744 28
17396 21741 21745 28
17397 21746 21747 28
17398 21746 21748 28
17399 21746 21749 28
17400 21746 21750 28
17401 21751 21752 28
17402 21751 21753 28
17403 21751 21754 28
17404 21751 21755 28
17405 21756 21757 28
17406 21756 21758 28
17407 21756 21759 28
17408 21756 21760 28
17409 21761 21762 28
17410 21761 21763 28
17411 21761 21764 28
17412 21761 21765 28
17413 21766 21767 28
17414 21766 21768 28
17415 21766 21769 28
17416 21766 21770 28
17417 21771 21772 28
17418 21771 21773 28
17419 21771 21774 28
17420 21771 21775 28
17421 21776 21777 28
17422 21776 21778 28
17423 21776 21779 28
17424 21776 21780 28
17425 21781 21782 28
17426 21781 21783 28
17427 21781 21784 28
17428 21781 21785 28
17429 21786 21787 28
17430 21786 21788 28
17431 21786 21789 28
17432 21786 21790 28
17433 21791 21792 28
17434 21791 21793 28
17435 21791 21794 28
17436 21791 21795 28
17437 21796 21797 28
17438 21796 21798 28
17439 21796 21799 28
17440 21796 21800 28
17441 21801 21802 28
17442 21801 21803 28
17443 21801 21804 28
17444 21801 21805 28
17445 21806 21807 28
17446 21806 21808 28
17447 21806 21809 28
17448 21806 21810 28
17449 21811 21812 28
17450 21811 21813 28
17451 21811 21814 28
17452 21811 21815 28
17453 21816 21817 28
17454 21816 21818 28
17455 21816 21819 28
17456 21816 21820 28
17457 21821 21822 28
17458 21821 21823 28
17459 21821 21824 28
17460 21821 21825 28
17461 21826 21827 28
17462 21826 21828 28
17463 21826 21829 28
17464 21826 21830 28
17465 21831 21832 28
17466 21831 21833 28
17467 21831 21834 28
17468 21831 21835 28
17469 21836 21837 28
17470 21836 21838 28
17471 21836 21839 28
17472 21836 21840 28
17473 21841 21842 28
17474 21841 21843 28
17475 21841 21844 28
17476 21841 21845 28
17477 21846 21847 28
17478 21846 21848 28
17479 21846 21849 28
17480 21846 21850 28
17481 21851 21852 28
17482 21851 21853 28
17483 21851 21854 28
17484 21851 21855 28
17485 21856 21857 28
17486 21856 21858 28
17487 21856 21859 28
17488 21856 21860 28
17489 21861 21862 28
17490 21861 21863 28
17491 21861 21864 28
17492 21861 21865 28
17493 21866 21867 28
17494 21866 21868 28
17495 21866 21869 28
17496 21866 21870 28
17497 21871 21872 28
17498 21871 21873 28
17499 21871 21874 28
17500 21871 21875 28
17501 21876 21877 28
17502 21876 21878 28
17503 21876 21879 28
17504 21876 21880 28
17505 21881 21882 28
17506 21881 21883 28
17507 21881 21884 28
17508 21881 21885 28
17509 21886 21887 28
17510 21886 21888 28
17511 21886 21889 28
17512 21886 21890 28
17513 21891 21892 28
17514 21891 21893 28
17515 21891 21894 28
17516 21891 21895 28
17517 21896 21897 28
17518 21896 21898 28
17519 21896 21899 28
17520 21896 21900 28
17521 21901 21902 28
17522 21901 21903 28
17523 21901 21904 28
17524 21901 21905 28
17525 21906 21907 28
17526 21906 21908 28
17527 21906 21909 28
17528 21906 21910 28
17529 21911 21912 28
17530 21911 21913 28
17531 21911 21914 28
17532 21911 21915 28
17533 21916 21917 28
17534 21916 21918 28
17535 21916 21919 28
17536 21916 21920 28
17537 21921 21922 28
17538 21921 21923 28
17539 21921 21924 28
17540 21921 21925 28
17541 21926 21927 28
17542 21926 21928 28
17543 21926 21929 28
17544 21926 21930 28
17545 21931 21932 28
17546 21931 21933 28
17547 21931 21934 28
17548 21931 21935 28
17549 21936 21937 28
17550 21936 21938 28
17551 21936 21939 28
17552 21936 21940 28
17553 21941 21942 28
17554 21941 21943 28
17555 21941 21944 28
17556 21941 21945 28
17557 21946 21947 28
17558 21946 21948 28
17559 21946 21949 28
17560 21946 21950 28
17561 21951 21952 28
17562 21951 21953 28
17563 21951 21954 28
17564 21951 21955 28
17565 21956 21957 28
17566 21956 21958 28
17567 21956 21959 28
17568 21956 21960 28
17569 21961 21962 28
17570 21961 21963 28
17571 21961 21964 28
17572 21961 21965 28
17573 21966 21967 28
17574 21966 21968 28
17575 21966 21969 28
17576 21966 21970 28
17577 21971 21972 28
17578 21971 21973 28
17579 21971 21974 28
17580 21971 21975 28
17581 21976 21977 28
17582 21976 21978 28
17583 21976 21979 28
17584 21976 21980 28
17585 21981 21982 28
17586 21981 21983 28
17587 21981 21984 28
17588 21981 21985 28
17589 21986 21987 28
17590 21986 21988 28
17591 21986 21989 28
17592 21986 21990 28
17593 21991 21992 28
17594 21991 21993 28
17595 21991 21994 28
17596 21991 21995 28
17597 21996 21997 28
17598 21996 21998 28
17599 21996 21999 28
17600 21996 22000 28
17601 22001 22002 28
17602 22001 22003 28
17603 22001 22004 28
17604 22001 22005 28
17605 22006 22007 28
17606 22006 22008 28
17607 22006 22009 28
17608 22006 22010 28
17609 22011 22012 28
17610 22011 22013 28
17611 22011 22014 28
17612 22011 22015 28
17613 22016 22017 28
17614 22016 22018 28
17615 22016 22019 28
17616 22016 22020 28
17617 22021 22022 28
17618 22021 22023 28
17619 22021 22024 28
17620 22021 22025 28
17621 22026 22027 28
17622 22026 22028 28
17623 22026 22029 28
17624 22026 22030 28
17625 22031 22032 28
17626 22031 22033 28
17627 22031 22034 28
17628 22031 22035 28
17629 22036 22037 28
17630 22036 22038 28
17631 22036 22039 28
17632 22036 22040 28
17633 22041 22042 28
17634 22041 22043 28
17635 22041 22044 28
17636 22041 22045 28
17637 22046 22047 28
17638 22046 22048 28
17639 22046 22049 28
17640 22046 22050 28
17641 22051 22052 28
17642 22051 22053 28
17643 22051 22054 28
17644 22051 22055 28
17645 22056 22057 28
17646 22056 22058 28
17647 22056 22059 28
17648 22056 22060 28
17649 22061 22062 28
17650 22061 22063 28
17651 22061 22064 28
17652 22061 22065 28
17653 22066 22067 28
17654 22066 22068 28
17655 22066 22069 28
17656 22066 22070 28
17657 22071 22072 28
17658 22071 22073 28
17659 22071 22074 28
17660 22071 22075 28
17661 22076 22077 28
17662 22076 22078 28
17663 22076 22079 28
17664 22076 22080 28
17665 22081 22082 28
17666 22081 22083 28
17667 22081 22084 28
17668 22081 22085 28
17669 22086 22087 28
17670 22086 22088 28
17671 22086 22089 28
17672 22086 22090 28
17673 22091 22092 28
17674 22091 22093 28
17675 22091 22094 28
17676 22091 22095 28
17677 22096 22097 28
17678 22096 22098 28
17679 22096 22099 28
17680 22096 22100 28
17681 22101 22102 28
17682 22101 22103 28
17683 22101 22104 28
17684 22101 22105 28
17685 22106 22107 28
17686 22106 22108 28
17687 22106 22109 28
17688 22106 22110 28
17689 22111 22112 28
17690 22111 22113 28
17691 22111 22114 28
17692 22111 22115 28
17693 22116 22117 28
17694 22116 22118 28
17695 22116 22119 28
17696 22116 22120 28
17697 22121 22122 28
17698 22121 22123 28
17699 22121 22124 28
17700 22121 22125 28
17701 22126 22127 28
17702 22126 22128 28
17703 22126 22129 28
17704 22126 22130 28
17705 22131 22132 28
17706 22131 22133 28
17707 22131 22134 28
17708 22131 22135 28
17709 22136 22137 28
17710 22136 22138 28
17711 22136 22139 28
17712 22136 22140 28
17713 22141 22142 28
17714 22141 22143 28
17715 22141 22144 28
17716 22141 22145 28
17717 22146 22147 28
17718 22146 22148 28
17719 22146 22149 28
17720 22146 22150 28
17721 22151 22152 28
17722 22151 22153 28
17723 22151 22154 28
17724 22151 22155 28
17725 22156 22157 28
17726 22156 22158 28
17727 22156 22159 28
17728 22156 22160 28
17729 22161 22162 28
17730 22161 22163 28
17731 22161 22164 28
17732 22161 22165 28
17733 22166 22167 28
17734 22166 22168 28
17735 22166 22169 28
17736 22166 22170 28
17737 22171 22172 28
17738 22171 22173 28
17739 22171 22174 28
17740 22171 22175 28
17741 22176 22177 28
17742 22176 22178 28
17743 22176 22179 28
17744 22176 22180 28
17745 22181 22182 28
17746 22181 22183 28
17747 22181 22184 28
17748 22181 22185 28
17749 22186 22187 28
17750 22186 22188 28
17751 22186 22189 28
17752 22186 22190 28
17753 22191 22192 28
17754 22191 22193 28
17755 22191 22194 28
17756 22191 22195 28
17757 22196 22197 28
17758 22196 22198 28
17759 22196 22199 28
17760 22196 22200 28
17761 22201 22202 28
17762 22201 22203 28
17763 22201 22204 28
17764 22201 22205 28
17765 22206 22207 28
17766 22206 22208 28
17767 22206 22209 28
17768 22206 22210 28
17769 22211 22212 28
17770 22211 22213 28
17771 22211 22214 28
17772 22211 22215 28
17773 22216 22217 28
17774 22216 22218 28
17775 22216 22219 28
17776 22216 22220 28
17777 22221 22222 28
17778 22221 22223 28
17779 22221 22224 28
17780 22221 22225 28
17781 22226 22227 28
17782 22226 22228 28
17783 22226 22229 28
17784 22226 22230 28
17785 22231 22232 28
17786 22231 22233 28
17787 22231 22234 28
17788 22231 22235 28
17789 22236 22237 28
17790 22236 22238 28
17791 22236 22239 28
17792 22236 22240 28
17793 22241 22242 28
17794 22241 22243 28
17795 22241 22244 28
17796 22241 22245 28
17797 22246 22247 28
17798 22246 22248 28
17799 22246 22249 28
17800 22246 22250 28
17801 22251 22252 28
17802 22251 22253 28
17803 22251 22254 28
17804 22251 22255 28
17805 22256 22257 28
17806 22256 22258 28
17807 22256 22259 28
17808 22256 22260 28
17809 22261 22262 28
17810 22261 22263 28
17811 22261 22264 28
17812 22261 22265 28
17813 22266 22267 28
17814 22266 22268 28
17815 22266 22269 28
17816 22266 22270 28
17817 22271 22272 28
17818 22271 22273 28
17819 22271 22274 28
17820 22271 22275 28
17821 22276 22277 28
17822 22276 22278 28
17823 22276 22279 28
17824 22276 22280 28
17825 22281 22282 28
17826 22281 22283 28
17827 22281 22284 28
17828 22281 22285 28
17829 22286 22287 28
17830 22286 22288 28
17831 22286 22289 28
17832 22286 22290 28
17833 22291 22292 28
17834 22291 22293 28
17835 22291 22294 28
17836 22291 22295 28
17837 22296 22297 28
17838 22296 22298 28
17839 22296 22299 28
17840 22296 22300 28
17841 22301 22302 28
17842 22301 22303 28
17843 22301 22304 28
17844 22301 22305 28
17845 22306 22307 28
17846 22306 22308 28
17847 22306 22309 28
17848 22306 22310 28
17849 22311 22312 28
17850 22311 22313 28
17851 22311 22314 28
17852 22311 22315 28
17853 22316 22317 28
17854 22316 22318 28
17855 22316 22319 28
17856 22316 22320 28
17857 22321 22322 28
17858 22321 22323 28
17859 22321 22324 28
17860 22321 22325 28
17861 22326 22327 28
17862 22326 22328 28
17863 22326 22329 28
17864 22326 22330 28
17865 22331 22332 28
17866 22331 22333 28
17867 22331 22334 28
17868 22331 22335 28
17869 22336 22337 28
17870 22336 22338 28
17871 22336 22339 28
17872 22336 22340 28
17873 22341 22342 28
17874 22341 22343 28
17875 22341 22344 28
17876 22341 22345 28
17877 22346 22347 28
17878 22346 22348 28
17879 22346 22349 28
17880 22346 22350 28
17881 22351 22352 28
17882 22351 22353 28
17883 22351 22354 28
17884 22351 22355 28
17885 22356 22357 28
17886 22356 22358 28
17887 22356 22359 28
17888 22356 22360 28
17889 22361 22362 28
17890 22361 22363 28
17891 22361 22364 28
17892 22361 22365 28
17893 22366 22367 28
17894 22366 22368 28
17895 22366 22369 28
17896 22366 22370 28
17897 22371 22372 28
17898 22371 22373 28
17899 22371 22374 28
17900 22371 22375 28
17901 22376 22377 28
17902 22376 22378 28
17903 22376 22379 28
17904 22376 22380 28
17905 22381 22382 28
17906 22381 22383 28
17907 22381 22384 28
17908 22381 22385 28
17909 22386 22387 28
17910 22386 22388 28
17911 22386 22389 28
17912 22386 22390 28
17913 22391 22392 28
17914 22391 22393 28
17915 22391 22394 28
17916 22391 22395 28
17917 22396 22397 28
17918 22396 22398 28
17919 22396 22399 28
17920 22396 22400 28
17921 22401 22402 28
17922 22401 22403 28
17923 22401 22404 28
17924 22401 22405 28
17925 22406 22407 28
17926 22406 22408 28
17927 22406 22409 28
17928 22406 22410 28
17929 22411 22412 28
17930 22411 22413 28
17931 22411 22414 28
17932 22411 22415 28
17933 22416 22417 28
17934 22416 22418 28
17935 22416 22419 28
17936 22416 22420 28
17937 22421 22422 28
17938 22421 22423 28
17939 22421 22424 28
17940 22421 22425 28
17941 22426 22427 28
17942 22426 22428 28
17943 22426 22429 28
17944 22426 22430 28
17945 22431 22432 28
17946 22431 22433 28
17947 22431 22434 28
17948 22431 22435 28
17949 22436 22437 28
17950 22436 22438 28
17951 22436 22439 28
17952 22436 22440 28
17953 22441 22442 28
17954 22441 22443 28
17955 22441 22444 28
17956 22441 22445 28
17957 22446 22447 28
17958 22446 22448 28
17959 22446 22449 28
17960 22446 22450 28
17961 22451 22452 28
17962 22451 22453 28
17963 22451 22454 28
17964 22451 22455 28
17965 22456 22457 28
17966 22456 22458 28
17967 22456 22459 28
17968 22456 22460 28
17969 22461 22462 28
17970 22461 22463 28
17971 22461 22464 28
17972 22461 22465 28
17973 22466 22467 28
17974 22466 22468 28
17975 22466 22469 28
17976 22466 22470 28
17977 22471 22472 28
17978 22471 22473 28
17979 22471 22474 28
17980 22471 22475 28
17981 22476 22477 28
17982 22476 22478 28
17983 22476 22479 28
17984 22476 22480 28
17985 22481 22482 28
17986 22481 22483 28
17987 22481 22484 28
17988 22481 22485 28
17989 22486 22487 28
17990 22486 22488 28
17991 22486 22489 28
17992 22486 22490 28
17993 22491 22492 28
17994 22491 22493 28
17995 22491 22494 28
17996 22491 22495 28
17997 22496 22497 28
17998 22496 22498 28
17999 22496 22499 28
18000 22496 22500 28
18001 22501 22502 28
18002 22501 22503 28
18003 22501 22504 28
18004 22501 22505 28
18005 22506 22507 28
18006 22506 22508 28
18007 22506 22509 28
18008 22506 22510 28
18009 22511 22512 28
18010 22511 22513 28
18011 22511 22514 28
18012 22511 22515 28
18013 22516 22517 28
18014 22516 22518 28
18015 22516 22519 28
18016 22516 22520 28
18017 22521 22522 28
18018 22521 22523 28
18019 22521 22524 28
18020 22521 22525 28
18021 22526 22527 28
18022 22526 22528 28
18023 22526 22529 28
18024 22526 22530 28
18025 22531 22532 28
18026 22531 22533 28
18027 22531 22534 28
18028 22531 22535 28
18029 22536 22537 28
18030 22536 22538 28
18031 22536 22539 28
18032 22536 22540 28
18033 22541 22542 28
18034 22541 22543 28
18035 22541 22544 28
18036 22541 22545 28
18037 22546 22547 28
18038 22546 22548 28
18039 22546 22549 28
18040 22546 22550 28
18041 22551 22552 28
18042 22551 22553 28
18043 22551 22554 28
18044 22551 22555 28
18045 22556 22557 28
18046 22556 22558 28
18047 22556 22559 28
18048 22556 22560 28
18049 22561 22562 28
18050 22561 22563 28
18051 22561 22564 28
18052 22561 22565 28
18053 22566 22567 28
18054 22566 22568 28
18055 22566 22569 28
18056 22566 22570 28
18057 22571 22572 28
18058 22571 22573 28
18059 22571 22574 28
18060 22571 22575 28
18061 22576 22577 28
18062 22576 22578 28
18063 22576 22579 28
18064 22576 22580 28
18065 22581 22582 28
18066 22581 22583 28
18067 22581 22584 28
18068 22581 22585 28
18069 22586 22587 28
18070 22586 22588 28
18071 22586 22589 28
18072 22586 22590 28
18073 22591 22592 28
18074 22591 22593 28
18075 22591 22594 28
18076 22591 22595 28
18077 22596 22597 28
18078 22596 22598 28
18079 22596 22599 28
18080 22596 22600 28
18081 22601 22602 28
18082 22601 22603 28
18083 22601 22604 28
18084 22601 22605 28
18085 22606 22607 28
18086 22606 22608 28
18087 22606 22609 28
18088 22606 22610 28
18089 22611 22612 28
18090 22611 22613 28
18091 22611 22614 28
18092 22611 22615 28
18093 22616 22617 28
18094 22616 22618 28
18095 22616 22619 28
18096 22616 22620 28
18097 22621 22622 28
18098 22621 22623 28
18099 22621 22624 28
18100 22621 22625 28
18101 22626 22627 28
18102 22626 22628 28
18103 22626 22629 28
18104 22626 22630 28
18105 22631 22632 28
18106 22631 22633 28
18107 22631 22634 28
18108 22631 22635 28
18109 22636 22637 28
18110 22636 22638 28
18111 22636 22639 28
18112 22636 22640 28
18113 22641 22642 28
18114 22641 22643 28
18115 22641 22644 28
18116 22641 22645 28
18117 22646 22647 28
18118 22646 22648 28
18119 22646 22649 28
18120 22646 22650 28
18121 22651 22652 28
18122 22651 22653 28
18123 22651 22654 28
18124 22651 22655 28
18125 22656 22657 28
18126 22656 22658 28
18127 22656 22659 28
18128 22656 22660 28
18129 22661 22662 28
18130 22661 22663 28
18131 22661 22664 28
18132 22661 22665 28
18133 22666 22667 28
18134 22666 22668 28
18135 22666 22669 28
18136 22666 22670 28
18137 22671 22672 28
18138 22671 22673 28
18139 22671 22674 28
18140 22671 22675 28
18141 22676 22677 28
18142 22676 22678 28
18143 22676 22679 28
18144 22676 22680 28
18145 22681 22682 28
18146 22681 22683 28
18147 22681 22684 28
18148 22681 22685 28
18149 22686 22687 28
18150 22686 22688 28
18151 22686 22689 28
18152 22686 22690 28
18153 22691 22692 28
18154 22691 22693 28
18155 22691 22694 28
18156 22691 22695 28
18157 22696 22697 28
18158 22696 22698 28
18159 22696 22699 28
18160 22696 22700 28
18161 22701 22702 28
18162 22701 22703 28
18163 22701 22704 28
18164 22701 22705 28
18165 22706 22707 28
18166 22706 22708 28
18167 22706 22709 28
18168 22706 22710 28
18169 22711 22712 28
18170 22711 22713 28
18171 22711 22714 28
18172 22711 22715 28
18173 22716 22717 28
18174 22716 22718 28
18175 22716 22719 28
18176 22716 22720 28
18177 22721 22722 28
18178 22721 22723 28
18179 22721 22724 28
18180 22721 22725 28
18181 22726 22727 28
18182 22726 22728 28
18183 22726 22729 28
18184 22726 22730 28
18185 22731 22732 28
18186 22731 22733 28
18187 22731 22734 28
18188 22731 22735 28
18189 22736 22737 28
18190 22736 22738 28
18191 22736 22739 28
18192 22736 22740 28
18193 22741 22742 28
18194 22741 22743 28
18195 22741 22744 28
18196 22741 22745 28
18197 22746 22747 28
18198 22746 22748 28
18199 22746 22749 28
18200 22746 22750 28
18201 22751 22752 28
18202 22751 22753 28
18203 22751 22754 28
18204 22751 22755 28
18205 22756 22757 28
18206 22756 22758 28
18207 22756 22759 28
18208 22756 22760 28
18209 22761 22762 28
18210 22761 22763 28
18211 22761 22764 28
18212 22761 22765 28
18213 22766 22767 28
18214 22766 22768 28
18215 22766 22769 28
18216 22766 22770 28
18217 22771 22772 28
18218 22771 22773 28
18219 22771 22774 28
18220 22771 22775 28
18221 22776 22777 28
18222 22776 22778 28
18223 22776 22779 28
18224 22776 22780 28
18225 22781 22782 28
18226 22781 22783 28
18227 22781 22784 28
18228 22781 22785 28
18229 22786 22787 28
18230 22786 22788 28
18231 22786 22789 28
18232 22786 22790 28
18233 22791 22792 28
18234 22791 22793 28
18235 22791 22794 28
18236 22791 22795 28
18237 22796 22797 28
18238 22796 22798 28
18239 22796 22799 28
18240 22796 22800 28
18241 22801 22802 28
18242 22801 22803 28
18243 22801 22804 28
18244 22801 22805 28
18245 22806 22807 28
18246 22806 22808 28
18247 22806 22809 28
18248 22806 22810 28
18249 22811 22812 28
18250 22811 22813 28
18251 22811 22814 28
18252 22811 22815 28
18253 22816 22817 28
18254 22816 22818 28
18255 22816 22819 28
18256 22816 22820 28
18257 22821 22822 28
18258 22821 22823 28
18259 22821 22824 28
18260 22821 22825 28
18261 22826 22827 28
18262 22826 22828 28
18263 22826 22829 28
18264 22826 22830 28
18265 22831 22832 28
18266 22831 22833 28
18267 22831 22834 28
18268 22831 22835 28
18269 22836 22837 28
18270 22836 22838 28
18271 22836 22839 28
18272 22836 22840 28
18273 22841 22842 28
18274 22841 22843 28
18275 22841 22844 28
18276 22841 22845 28
18277 22846 22847 28
18278 22846 22848 28
18279 22846 22849 28
18280 22846 22850 28
18281 22851 22852 28
18282 22851 22853 28
18283 22851 22854 28
18284 22851 22855 28
18285 22856 22857 28
18286 22856 22858 28
18287 22856 22859 28
18288 22856 22860 28
18289 22861 22862 28
18290 22861 22863 28
18291 22861 22864 28
18292 22861 22865 28
18293 22866 22867 28
18294 22866 22868 28
18295 22866 22869 28
18296 22866 22870 28
18297 22871 22872 28
18298 22871 22873 28
18299 22871 22874 28
18300 22871 22875 28
18301 22876 22877 28
18302 22876 22878 28
18303 22876 22879 28
18304 22876 22880 28
18305 22881 22882 28
18306 22881 22883 28
18307 22881 22884 28
18308 22881 22885 28
18309 22886 22887 28
18310 22886 22888 28
18311 22886 22889 28
18312 22886 22890 28
18313 22891 22892 28
18314 22891 22893 28
18315 22891 22894 28
18316 22891 22895 28
18317 22896 22897 28
18318 22896 22898 28
18319 22896 22899 28
18320 22896 22900 28
18321 22901 22902 28
18322 22901 22903 28
18323 22901 22904 28
18324 22901 22905 28
18325 22906 22907 28
18326 22906 22908 28
18327 22906 22909 28
18328 22906 22910 28
18329 22911 22912 28
18330 22911 22913 28
18331 22911 22914 28
18332 22911 22915 28
18333 22916 22917 28
18334 22916 22918 28
18335 22916 22919 28
18336 22916 22920 28
18337 22921 22922 28
18338 22921 22923 28
18339 22921 22924 28
18340 22921 22925 28
18341 22926 22927 28
18342 22926 22928 28
18343 22926 22929 28
18344 22926 22930 28
18345 22931 22932 28
18346 22931 22933 28
18347 22931 22934 28
18348 22931 22935 28
18349 22936 22937 28
18350 22936 22938 28
18351 22936 22939 28
18352 22936 22940 28
18353 22941 22942 28
18354 22941 22943 28
18355 22941 22944 28
18356 22941 22945 28
18357 22946 22947 28
18358 22946 22948 28
18359 22946 22949 28
18360 22946 22950 28
18361 22951 22952 28
18362 22951 22953 28
18363 22951 22954 28
18364 22951 22955 28
18365 22956 22957 28
18366 22956 22958 28
18367 22956 22959 28
18368 22956 22960 28
18369 22961 22962 28
18370 22961 22963 28
18371 22961 22964 28
18372 22961 22965 28
18373 22966 22967 28
18374 22966 22968 28
18375 22966 22969 28
18376 22966 22970 28
18377 22971 22972 28
18378 22971 22973 28
18379 22971 22974 28
18380 22971 22975 28
18381 22976 22977 28
18382 22976 22978 28
18383 22976 22979 28
18384 22976 22980 28
18385 22981 22982 28
18386 22981 22983 28
18387 22981 22984 28
18388 22981 22985 28
18389 22986 22987 28
18390 22986 22988 28
18391 22986 22989 28
18392 22986 22990 28
18393 22991 22992 28
18394 22991 22993 28
18395 22991 22994 28
18396 22991 22995 28
18397 22996 22997 28
18398 22996 22998 28
18399 22996 22999 28
18400 22996 23000 28
18401 23001 23002 28
18402 23001 23003 28
18403 23001 23004 28
18404 23001 23005 28
18405 23006 23007 28
18406 23006 23008 28
18407 23006 23009 28
18408 23006 23010 28
18409 23011 23012 28
18410 23011 23013 28
18411 23011 23014 28
18412 23011 23015 28
18413 23016 23017 28
18414 23016 23018 28
18415 23016 23019 28
18416 23016 23020 28
18417 23021 23022 28
18418 23021 23023 28
18419 23021 23024 28
18420 23021 23025 28
18421 23026 23027 28
18422 23026 23028 28
18423 23026 23029 28
18424 23026 23030 28
18425 23031 23032 28
18426 23031 23033 28
18427 23031 23034 28
18428 23031 23035 28
18429 23036 23037 28
18430 23036 23038 28
18431 23036 23039 28
18432 23036 23040 28
18433 23041 23042 28
18434 23041 23043 28
18435 23041 23044 28
18436 23041 23045 28
18437 23046 23047 28
18438 23046 23048 28
18439 23046 23049 28
18440 23046 23050 28
18441 23051 23052 28
18442 23051 23053 28
18443 23051 23054 28
18444 23051 23055 28
18445 23056 23057 28
18446 23056 23058 28
18447 23056 23059 28
18448 23056 23060 28
18449 23061 23062 28
18450 23061 23063 28
18451 23061 23064 28
18452 23061 23065 28
18453 23066 23067 28
18454 23066 23068 28
18455 23066 23069 28
18456 23066 23070 28
18457 23071 23072 28
18458 23071 23073 28
18459 23071 23074 28
18460 23071 23075 28
18461 23076 23077 28
18462 23076 23078 28
18463 23076 23079 28
18464 23076 23080 28
18465 23081 23082 28
18466 23081 23083 28
18467 23081 23084 28
18468 23081 23085 28
18469 23086 23087 28
18470 23086 23088 28
18471 23086 23089 28
18472 23086 23090 28
18473 23091 23092 28
18474 23091 23093 28
18475 23091 23094 28
18476 23091 23095 28
18477 23096 23097 28
18478 23096 23098 28
18479 23096 23099 28
18480 23096 23100 28
18481 23101 23102 28
18482 23101 23103 28
18483 23101 23104 28
18484 23101 23105 28
18485 23106 23107 28
18486 23106 23108 28
18487 23106 23109 28
18488 23106 23110 28
18489 23111 23112 28
18490 23111 23113 28
18491 23111 23114 28
18492 23111 23115 28
18493 23116 23117 28
18494 23116 23118 28
18495 23116 23119 28
18496 23116 23120 28
18497 23121 23122 28
18498 23121 23123 28
18499 23121 23124 28
18500 23121 23125 28
18501 23126 23127 28
18502 23126 23128 28
18503 23126 23129 28
18504 23126 23130 28
18505 23131 23132 28
18506 23131 23133 28
18507 23131 23134 28
18508 23131 23135 28
18509 23136 23137 28
18510 23136 23138 28
18511 23136 23139 28
18512 23136 23140 28
18513 23141 23142 28
18514 23141 23143 28
18515 23141 23144 28
18516 23141 23145 28
18517 23146 23147 28
18518 23146 23148 28
18519 23146 23149 28
18520 23146 23150 28
18521 23151 23152 28
18522 23151 23153 28
18523 23151 23154 28
18524 23151 23155 28
18525 23156 23157 28
18526 23156 23158 28
18527 23156 23159 28
18528 23156 23160 28
18529 23161 23162 28
18530 23161 23163 28
18531 23161 23164 28
18532 23161 23165 28
18533 23166 23167 28
18534 23166 23168 28
18535 23166 23169 28
18536 23166 23170 28
18537 23171 23172 28
18538 23171 23173 28
18539 23171 23174 28
18540 23171 23175 28
18541 23176 23177 28
18542 23176 23178 28
18543 23176 23179 28
18544 23176 23180 28
18545 23181 23182 28
18546 23181 23183 28
18547 23181 23184 28
18548 23181 23185 28
18549 23186 23187 28
18550 23186 23188 28
18551 23186 23189 28
18552 23186 23190 28
18553 23191 23192 28
18554 23191 23193 28
18555 23191 23194 28
18556 23191 23195 28
18557 23196 23197 28
18558 23196 23198 28
18559 23196 23199 28
18560 23196 23200 28
18561 23201 23202 28
18562 23201 23203 28
18563 23201 23204 28
18564 23201 23205 28
18565 23206 23207 28
18566 23206 23208 28
18567 23206 23209 28
18568 23206 23210 28
18569 23211 23212 28
18570 23211 23213 28
18571 23211 23214 28
18572 23211 23215 28
18573 23216 23217 28
18574 23216 23218 28
18575 23216 23219 28
18576 23216 23220 28
18577 23221 23222 28
18578 23221 23223 28
18579 23221 23224 28
18580 23221 23225 28
18581 23226 23227 28
18582 23226 23228 28
18583 23226 23229 28
18584 23226 23230 28
18585 23231 23232 28
18586 23231 23233 28
18587 23231 23234 28
18588 23231 23235 28
18589 23236 23237 28
18590 23236 23238 28
18591 23236 23239 28
18592 23236 23240 28
18593 23241 23242 28
18594 23241 23243 28
18595 23241 23244 28
18596 23241 23245 28
18597 23246 23247 28
18598 23246 23248 28
18599 23246 23249 28
18600 23246 23250 28
18601 23251 23252 28
18602 23251 23253 28
18603 23251 23254 28
18604 23251 23255 28
18605 23256 23257 28
18606 23256 23258 28
18607 23256 23259 28
18608 23256 23260 28
18609 23261 23262 28
18610 23261 23263 28
18611 23261 23264 28
18612 23261 23265 28
18613 23266 23267 28
18614 23266 23268 28
18615 23266 23269 28
18616 23266 23270 28
18617 23271 23272 28
18618 23271 23273 28
18619 23271 23274 28
18620 23271 23275 28
18621 23276 23277 28
18622 23276 23278 28
18623 23276 23279 28
18624 23276 23280 28
18625 23281 23282 28
18626 23281 23283 28
18627 23281 23284 28
18628 23281 23285 28
18629 23286 23287 28
18630 23286 23288 28
18631 23286 23289 28
18632 23286 23290 28
18633 23291 23292 28
18634 23291 23293 28
18635 23291 23294 28
18636 23291 23295 28
18637 23296 23297 28
18638 23296 23298 28
18639 23296 23299 28
18640 23296 23300 28
18641 23301 23302 28
18642 23301 23303 28
18643 23301 23304 28
18644 23301 23305 28
18645 23306 23307 28
18646 23306 23308 28
18647 23306 23309 28
18648 23306 23310 28
18649 23311 23312 28
18650 23311 23313 28
18651 23311 23314 28
18652 23311 23315 28
18653 23316 23317 28
18654 23316 23318 28
18655 23316 23319 28
18656 23316 23320 28
18657 23321 23322 28
18658 23321 23323 28
18659 23321 23324 28
18660 23321 23325 28
18661 23326 23327 28
18662 23326 23328 28
18663 23326 23329 28
18664 23326 23330 28
18665 23331 23332 28
18666 23331 23333 28
18667 23331 23334 28
18668 23331 23335 28
18669 23336 23337 28
18670 23336 23338 28
18671 23336 23339 28
18672 23336 23340 28
18673 23341 23342 28
18674 23341 23343 28
18675 23341 23344 28
18676 23341 23345 28
18677 23346 23347 28
18678 23346 23348 28
18679 23346 23349 28
18680 23346 23350 28
18681 23351 23352 28
18682 23351 23353 28
18683 23351 23354 28
18684 23351 23355 28
18685 23356 23357 28
18686 23356 23358 28
18687 23356 23359 28
18688 23356 23360 28
18689 23361 23362 28
18690 23361 23363 28
18691 23361 23364 28
18692 23361 23365 28
18693 23366 23367 28
18694 23366 23368 28
18695 23366 23369 28
18696 23366 23370 28
18697 23371 23372 28
18698 23371 23373 28
18699 23371 23374 28
18700 23371 23375 28
18701 23376 23377 28
18702 23376 23378 28
18703 23376 23379 28
18704 23376 23380 28
18705 23381 23382 28
18706 23381 23383 28
18707 23381 23384 28
18708 23381 23385 28
18709 23386 23387 28
18710 23386 23388 28
18711 23386 23389 28
18712 23386 23390 28
18713 23391 23392 28
18714 23391 23393 28
18715 23391 23394 28
18716 23391 23395 28
18717 23396 23397 28
18718 23396 23398 28
18719 23396 23399 28
18720 23396 23400 28
18721 23401 23402 28
18722 23401 23403 28
18723 23401 23404 28
18724 23401 23405 28
18725 23406 23407 28
18726 23406 23408 28
18727 23406 23409 28
18728 23406 23410 28
18729 23411 23412 28
18730 23411 23413 28
18731 23411 23414 28
18732 23411 23415 28
18733 23416 23417 28
18734 23416 23418 28
18735 23416 23419 28
18736 23416 23420 28
18737 23421 23422 28
18738 23421 23423 28
18739 23421 23424 28
18740 23421 23425 28
18741 23426 23427 28
18742 23426 23428 28
18743 23426 23429 28
18744 23426 23430 28
18745 23431 23432 28
18746 23431 23433 28
18747 23431 23434 28
18748 23431 23435 28
18749 23436 23437 28
18750 23436 23438 28
18751 23436 23439 28
18752 23436 23440 28
18753 23441 23442 28
18754 23441 23443 28
18755 23441 23444 28
18756 23441 23445 28
18757 23446 23447 28
18758 23446 23448 28
18759 23446 23449 28
18760 23446 23450 28
18761 23451 23452 28
18762 23451 23453 28
18763 23451 23454 28
18764 23451 23455 28
18765 23456 23457 28
18766 23456 23458 28
18767 23456 23459 28
18768 23456 23460 28
18769 23461 23462 28
18770 23461 23463 28
18771 23461 23464 28
18772 23461 23465 28
18773 23466 23467 28
18774 23466 23468 28
18775 23466 23469 28
18776 23466 23470 28
18777 23471 23472 28
18778 23471 23473 28
18779 23471 23474 28
18780 23471 23475 28
18781 23476 23477 28
18782 23476 23478 28
18783 23476 23479 28
18784 23476 23480 28
18785 23481 23482 28
18786 23481 23483 28
18787 23481 23484 28
18788 23481 23485 28
18789 23486 23487 28
18790 23486 23488 28
18791 23486 23489 28
18792 23486 23490 28
18793 23491 23492 28
18794 23491 23493 28
18795 23491 23494 28
18796 23491 23495 28
18797 23496 23497 28
18798 23496 23498 28
18799 23496 23499 28
18800 23496 23500 28
18801 23501 23502 28
18802 23501 23503 28
18803 23501 23504 28
18804 23501 23505 28
18805 23506 23507 28
18806 23506 23508 28
18807 23506 23509 28
18808 23506 23510 28
18809 23511 23512 28
18810 23511 23513 28
18811 23511 23514 28
18812 23511 23515 28
18813 23516 23517 28
18814 23516 23518 28
18815 23516 23519 28
18816 23516 23520 28
18817 23521 23522 28
18818 23521 23523 28
18819 23521 23524 28
18820 23521 23525 28
18821 23526 23527 28
18822 23526 23528 28
18823 23526 23529 28
18824 23526 23530 28
18825 23531 23532 28
18826 23531 23533 28
18827 23531 23534 28
18828 23531 23535 28
18829 23536 23537 28
18830 23536 23538 28
18831 23536 23539 28
18832 23536 23540 28
18833 23541 23542 28
18834 23541 23543 28
18835 23541 23544 28
18836 23541 23545 28
18837 23546 23547 28
18838 23546 23548 28
18839 23546 23549 28
18840 23546 23550 28
18841 23551 23552 28
18842 23551 23553 28
18843 23551 23554 28
18844 23551 23555 28
18845 23556 23557 28
18846 23556 23558 28
18847 23556 23559 28
18848 23556 23560 28
18849 23561 23562 28
18850 23561 23563 28
18851 23561 23564 28
18852 23561 23565 28
18853 23566 23567 28
18854 23566 23568 28
18855 23566 23569 28
18856 23566 23570 28
18857 23571 23572 28
18858 23571 23573 28
18859 23571 23574 28
18860 23571 23575 28
18861 23576 23577 28
18862 23576 23578 28
18863 23576 23579 28
18864 23576 23580 28
18865 23581 23582 28
18866 23581 23583 28
18867 23581 23584 28
18868 23581 23585 28
18869 23586 23587 28
18870 23586 23588 28
18871 23586 23589 28
18872 23586 23590 28
18873 23591 23592 28
18874 23591 23593 28
18875 23591 23594 28
18876 23591 23595 28
18877 23596 23597 28
18878 23596 23598 28
18879 23596 23599 28
18880 23596 23600 28
18881 23601 23602 28
18882 23601 23603 28
18883 23601 23604 28
18884 23601 23605 28
18885 23606 23607 28
18886 23606 23608 28
18887 23606 23609 28
18888 23606 23610 28
18889 23611 23612 28
18890 23611 23613 28
18891 23611 23614 28
18892 23611 23615 28
18893 23616 23617 28
18894 23616 23618 28
18895 23616 23619 28
18896 23616 23620 28
18897 23621 23622 28
18898 23621 23623 28
18899 23621 23624 28
18900 23621 23625 28
18901 23626 23627 28
18902 23626 23628 28
18903 23626 23629 28
18904 23626 23630 28
18905 23631 23632 28
18906 23631 23633 28
18907 23631 23634 28
18908 23631 23635 28
18909 23636 23637 28
18910 23636 23638 28
18911 23636 23639 28
18912 23636 23640 28
18913 23641 23642 28
18914 23641 23643 28
18915 23641 23644 28
18916 23641 23645 28
18917 23646 23647 28
18918 23646 23648 28
18919 23646 23649 28
18920 23646 23650 28
18921 23651 23652 28
18922 23651 23653 28
18923 23651 23654 28
18924 23651 23655 28
18925 23656 23657 28
18926 23656 23658 28
18927 23656 23659 28
18928 23656 23660 28
18929 23661 23662 28
18930 23661 23663 28
18931 23661 23664 28
18932 23661 23665 28
18933 23666 23667 28
18934 23666 23668 28
18935 23666 23669 28
18936 23666 23670 28
18937 23671 23672 28
18938 23671 23673 28
18939 23671 23674 28
18940 23671 23675 28
18941 23676 23677 28
18942 23676 23678 28
18943 23676 23679 28
18944 23676 23680 28
18945 23681 23682 28
18946 23681 23683 28
18947 23681 23684 28
18948 23681 23685 28
18949 23686 23687 28
18950 23686 23688 28
18951 23686 23689 28
18952 23686 23690 28
18953 23691 23692 28
18954 23691 23693 28
18955 23691 23694 28
18956 23691 23695 28
18957 23696 23697 28
18958 23696 23698 28
18959 23696 23699 28
18960 23696 23700 28
18961 23701 23702 28
18962 23701 23703 28
18963 23701 23704 28
18964 23701 23705 28
18965 23706 23707 28
18966 23706 23708 28
18967 23706 23709 28
18968 23706 23710 28
18969 23711 23712 28
18970 23711 23713 28
18971 23711 23714 28
18972 23711 23715 28
18973 23716 23717 28
18974 23716 23718 28
18975 23716 23719 28
18976 23716 23720 28
18977 23721 23722 28
18978 23721 23723 28
18979 23721 23724 28
18980 23721 23725 28
18981 23726 23727 28
18982 23726 23728 28
18983 23726 23729 28
18984 23726 23730 28
18985 23731 23732 28
18986 23731 23733 28
18987 23731 23734 28
18988 23731 23735 28
18989 23736 23737 28
18990 23736 23738 28
18991 23736 23739 28
18992 23736 23740 28
18993 23741 23742 28
18994 23741 23743 28
18995 23741 23744 28
18996 23741 23745 28
18997 23746 23747 28
18998 23746 23748 28
18999 23746 23749 28
19000 23746 23750 28
19001 23751 23752 28
19002 23751 23753 28
19003 23751 23754 28
19004 23751 23755 28
19005 23756 23757 28
19006 23756 23758 28
19007 23756 23759 28
19008 23756 23760 28
19009 23761 23762 28
19010 23761 23763 28
19011 23761 23764 28
19012 23761 23765 28
19013 23766 23767 28
19014 23766 23768 28
19015 23766 23769 28
19016 23766 23770 28
19017 23771 23772 28
19018 23771 23773 28
19019 23771 23774 28
19020 23771 23775 28
19021 23776 23777 28
19022 23776 23778 28
19023 23776 23779 28
19024 23776 23780 28
19025 23781 23782 28
19026 23781 23783 28
19027 23781 23784 28
19028 23781 23785 28
19029 23786 23787 28
19030 23786 23788 28
19031 23786 23789 28
19032 23786 23790 28
19033 23791 23792 28
19034 23791 23793 28
19035 23791 23794 28
19036 23791 23795 28
19037 23796 23797 28
19038 23796 23798 28
19039 23796 23799 28
19040 23796 23800 28
19041 23801 23802 28
19042 23801 23803 28
19043 23801 23804 28
19044 23801 23805 28
19045 23806 23807 28
19046 23806 23808 28
19047 23806 23809 28
19048 23806 23810 28
19049 23811 23812 28
19050 23811 23813 28
19051 23811 23814 28
19052 23811 23815 28
19053 23816 23817 28
19054 23816 23818 28
19055 23816 23819 28
19056 23816 23820 28
19057 23821 23822 28
19058 23821 23823 28
19059 23821 23824 28
19060 23821 23825 28
19061 23826 23827 28
19062 23826 23828 28
19063 23826 23829 28
19064 23826 23830 28
19065 23831 23832 28
19066 23831 23833 28
19067 23831 23834 28
19068 23831 23835 28
19069 23836 23837 28
19070 23836 23838 28
19071 23836 23839 28
19072 23836 23840 28
19073 23841 23842 28
19074 23841 23843 28
19075 23841 23844 28
19076 23841 23845 28
19077 23846 23847 28
19078 23846 23848 28
19079 23846 23849 28
19080 23846 23850 28
19081 23851 23852 28
19082 23851 23853 28
19083 23851 23854 28
19084 23851 23855 28
19085 23856 23857 28
19086 23856 23858 28
19087 23856 23859 28
19088 23856 23860 28
19089 23861 23862 28
19090 23861 23863 28
19091 23861 23864 28
19092 23861 23865 28
19093 23866 23867 28
19094 23866 23868 28
19095 23866 23869 28
19096 23866 23870 28
19097 23871 23872 28
19098 23871 23873 28
19099 23871 23874 28
19100 23871 23875 28
19101 23876 23877 28
19102 23876 23878 28
19103 23876 23879 28
19104 23876 23880 28
19105 23881 23882 28
19106 23881 23883 28
19107 23881 23884 28
19108 23881 23885 28
19109 23886 23887 28
19110 23886 23888 28
19111 23886 23889 28
19112 23886 23890 28
19113 23891 23892 28
19114 23891 23893 28
19115 23891 23894 28
19116 23891 23895 28
19117 23896 23897 28
19118 23896 23898 28
19119 23896 23899 28
19120 23896 23900 28
19121 23901 23902 28
19122 23901 23903 28
19123 23901 23904 28
19124 23901 23905 28
19125 23906 23907 28
19126 23906 23908 28
19127 23906 23909 28
19128 23906 23910 28
19129 23911 23912 28
19130 23911 23913 28
19131 23911 23914 28
19132 23911 23915 28
19133 23916 23917 28
19134 23916 23918 28
19135 23916 23919 28
19136 23916 23920 28
19137 23921 23922 28
19138 23921 23923 28
19139 23921 23924 28
19140 23921 23925 28
19141 23926 23927 28
19142 23926 23928 28
19143 23926 23929 28
19144 23926 23930 28
19145 23931 23932 28
19146 23931 23933 28
19147 23931 23934 28
19148 23931 23935 28
19149 23936 23937 28
19150 23936 23938 28
19151 23936 23939 28
19152 23936 23940 28
19153 23941 23942 28
19154 23941 23943 28
19155 23941 23944 28
19156 23941 23945 28
19157 23946 23947 28
19158 23946 23948 28
19159 23946 23949 28
19160 23946 23950 28
19161 23951 23952 28
19162 23951 23953 28
19163 23951 23954 28
19164 23951 23955 28
19165 23956 23957 28
19166 23956 23958 28
19167 23956 23959 28
19168 23956 23960 28
19169 23961 23962 28
19170 23961 23963 28
19171 23961 23964 28
19172 23961 23965 28
19173 23966 23967 28
19174 23966 23968 28
19175 23966 23969 28
19176 23966 23970 28
19177 23971 23972 28
19178 23971 23973 28
19179 23971 23974 28
19180 23971 23975 28
19181 23976 23977 28
19182 23976 23978 28
19183 23976 23979 28
19184 23976 23980 28
19185 23981 23982 28
19186 23981 23983 28
19187 23981 23984 28
19188 23981 23985 28
19189 23986 23987 28
19190 23986 23988 28
19191 23986 23989 28
19192 23986 23990 28
19193 23991 23992 28
19194 23991 23993 28
19195 23991 23994 28
19196 23991 23995 28
19197 23996 23997 28
19198 23996 23998 28
19199 23996 23999 28
19200 23996 24000 28
19201 24001 24002 28
19202 24001 24003 28
19203 24001 24004 28
19204 24001 24005 28
19205 24006 24007 28
19206 24006 24008 28
19207 24006 24009 28
19208 24006 24010 28
19209 24011 24012 28
19210 24011 24013 28
19211 24011 24014 28
19212 24011 24015 28
19213 24016 24017 28
19214 24016 24018 28
19215 24016 24019 28
19216 24016 24020 28
19217 24021 24022 28
19218 24021 24023 28
19219 24021 24024 28
19220 24021 24025 28
19221 24026 24027 28
19222 24026 24028 28
19223 24026 24029 28
19224 24026 24030 28
19225 24031 24032 28
19226 24031 24033 28
19227 24031 24034 28
19228 24031 24035 28
19229 24036 24037 28
19230 24036 24038 28
19231 24036 24039 28
19232 24036 24040 28
19233 24041 24042 28
19234 24041 24043 28
19235 24041 24044 28
19236 24041 24045 28
19237 24046 24047 28
19238 24046 24048 28
19239 24046 24049 28
19240 24046 24050 28
19241 24051 24052 28
19242 24051 24053 28
19243 24051 24054 28
19244 24051 24055 28
19245 24056 24057 28
19246 24056 24058 28
19247 24056 24059 28
19248 24056 24060 28
19249 24061 24062 28
19250 24061 24063 28
19251 24061 24064 28
19252 24061 24065 28
19253 24066 24067 28
19254 24066 24068 28
19255 24066 24069 28
19256 24066 24070 28
19257 24071 24072 28
19258 24071 24073 28
19259 24071 24074 28
19260 24071 24075 28
19261 24076 24077 28
19262 24076 24078 28
19263 24076 24079 28
19264 24076 24080 28
19265 24081 24082 28
19266 24081 24083 28
19267 24081 24084 28
19268 24081 24085 28
19269 24086 24087 28
19270 24086 24088 28
19271 24086 24089 28
19272 24086 24090 28
19273 24091 24092 28
19274 24091 24093 28
19275 24091 24094 28
19276 24091 24095 28
19277 24096 24097 28
19278 24096 24098 28
19279 24096 24099 28
19280 24096 24100 28
19281 24101 24102 28
19282 24101 24103 28
19283 24101 24104 28
19284 24101 24105 28
19285 24106 24107 28
19286 24106 24108 28
19287 24106 24109 28
19288 24106 24110 28
19289 24111 24112 28
19290 24111 24113 28
19291 24111 24114 28
19292 24111 24115 28
19293 24116 24117 28
19294 24116 24118 28
19295 24116 24119 28
19296 24116 24120 28
19297 24121 24122 28
19298 24121 24123 28
19299 24121 24124 28
19300 24121 24125 28
19301 24126 24127 28
19302 24126 24128 28
19303 24126 24129 28
19304 24126 24130 28
19305 24131 24132 28
19306 24131 24133 28
19307 24131 24134 28
19308 24131 24135 28
19309 24136 24137 28
19310 24136 24138 28
19311 24136 24139 28
19312 24136 24140 28
19313 24141 24142 28
19314 24141 24143 28
19315 24141 24144 28
19316 24141 24145 28
19317 24146 24147 28
19318 24146 24148 28
19319 24146 24149 28
19320 24146 24150 28
19321 24151 24152 28
19322 24151 24153 28
19323 24151 24154 28
19324 24151 24155 28
19325 24156 24157 28
19326 24156 24158 28
19327 24156 24159 28
19328 24156 24160 28
19329 24161 24162 28
19330 24161 24163 28
19331 24161 24164 28
19332 24161 24165 28
19333 24166 24167 28
19334 24166 24168 28
19335 24166 24169 28
19336 24166 24170 28
19337 24171 24172 28
19338 24171 24173 28
19339 24171 24174 28
19340 24171 24175 28
19341 24176 24177 28
19342 24176 24178 28
19343 24176 24179 28
19344 24176 24180 28
19345 24181 24182 28
19346 24181 24183 28
19347 24181 24184 28
19348 24181 24185 28
19349 24186 24187 28
19350 24186 24188 28
19351 24186 24189 28
19352 24186 24190 28
19353 24191 24192 28
19354 24191 24193 28
19355 24191 24194 28
19356 24191 24195 28
19357 24196 24197 28
19358 24196 24198 28
19359 24196 24199 28
19360 24196 24200 28
19361 24201 24202 28
19362 24201 24203 28
19363 24201 24204 28
19364 24201 24205 28
19365 24206 24207 28
19366 24206 24208 28
19367 24206 24209 28
19368 24206 24210 28
19369 24211 24212 28
19370 24211 24213 28
19371 24211 24214 28
19372 24211 24215 28
19373 24216 24217 28
19374 24216 24218 28
19375 24216 24219 28
19376 24216 24220 28
19377 24221 24222 28
19378 24221 24223 28
19379 24221 24224 28
19380 24221 24225 28
19381 24226 24227 28
19382 24226 24228 28
19383 24226 24229 28
19384 24226 24230 28
19385 24231 24232 28
19386 24231 24233 28
19387 24231 24234 28
19388 24231 24235 28
19389 24236 24237 28
19390 24236 24238 28
19391 24236 24239 28
19392 24236 24240 28
19393 24241 24242 28
19394 24241 24243 28
19395 24241 24244 28
19396 24241 24245 28
19397 24246 24247 28
19398 24246 24248 28
19399 24246 24249 28
19400 24246 24250 28
19401 24251 24252 28
19402 24251 24253 28
19403 24251 24254 28
19404 24251 24255 28
19405 24256 24257 28
19406 24256 24258 28
19407 24256 24259 28
19408 24256 24260 28
19409 24261 24262 28
19410 24261 24263 28
19411 24261 24264 28
19412 24261 24265 28
19413 24266 24267 28
19414 24266 24268 28
19415 24266 24269 28
19416 24266 24270 28
19417 24271 24272 28
19418 24271 24273 28
19419 24271 24274 28
19420 24271 24275 28
19421 24276 24277 28
19422 24276 24278 28
19423 24276 24279 28
19424 24276 24280 28
19425 24281 24282 28
19426 24281 24283 28
19427 24281 24284 28
19428 24281 24285 28
19429 24286 24287 28
19430 24286 24288 28
19431 24286 24289 28
19432 24286 24290 28
19433 24291 24292 28
19434 24291 24293 28
19435 24291 24294 28
19436 24291 24295 28
19437 24296 24297 28
19438 24296 24298 28
19439 24296 24299 28
19440 24296 24300 28
19441 24301 24302 28
19442 24301 24303 28
19443 24301 24304 28
19444 24301 24305 28
19445 24306 24307 28
19446 24306 24308 28
19447 24306 24309 28
19448 24306 24310 28
19449 24311 24312 28
19450 24311 24313 28
19451 24311 24314 28
19452 24311 24315 28
19453 24316 24317 28
19454 24316 24318 28
19455 24316 24319 28
19456 24316 24320 28
19457 24321 24322 28
19458 24321 24323 28
19459 24321 24324 28
19460 24321 24325 28
19461 24326 24327 28
19462 24326 24328 28
19463 24326 24329 28
19464 24326 24330 28
19465 24331 24332 28
19466 24331 24333 28
19467 24331 24334 28
19468 24331 24335 28
19469 24336 24337 28
19470 24336 24338 28
19471 24336 24339 28
19472 24336 24340 28
19473 24341 24342 28
19474 24341 24343 28
19475 24341 24344 28
19476 24341 24345 28
19477 24346 24347 28
19478 24346 24348 28
19479 24346 24349 28
19480 24346 24350 28
19481 24351 24352 28
19482 24351 24353 28
19483 24351 24354 28
19484 24351 24355 28
19485 24356 24357 28
19486 24356 24358 28
19487 24356 24359 28
19488 24356 24360 28
19489 24361 24362 28
19490 24361 24363 28
19491 24361 24364 28
19492 24361 24365 28
19493 24366 24367 28
19494 24366 24368 28
19495 24366 24369 28
19496 24366 24370 28
19497 24371 24372 28
19498 24371 24373 28
19499 24371 24374 28
19500 24371 24375 28
19501 24376 24377 28
19502 24376 24378 28
19503 24376 24379 28
19504 24376 24380 28
19505 24381 24382 28
19506 24381 24383 28
19507 24381 24384 28
19508 24381 24385 28
19509 24386 24387 28
19510 24386 24388 28
19511 24386 24389 28
19512 24386 24390 28
19513 24391 24392 28
19514 24391 24393 28
19515 24391 24394 28
19516 24391 24395 28
19517 24396 24397 28
19518 24396 24398 28
19519 24396 24399 28
19520 24396 24400 28
19521 24401 24402 28
19522 24401 24403 28
19523 24401 24404 28
19524 24401 24405 28
19525 24406 24407 28
19526 24406 24408 28
19527 24406 24409 28
19528 24406 24410 28
19529 24411 24412 28
19530 24411 24413 28
19531 24411 24414 28
19532 24411 24415 28
19533 24416 24417 28
19534 24416 24418 28
19535 24416 24419 28
19536 24416 24420 28
19537 24421 24422 28
19538 24421 24423 28
19539 24421 24424 28
19540 24421 24425 28
19541 24426 24427 28
19542 24426 24428 28
19543 24426 24429 28
19544 24426 24430 28
19545 24431 24432 28
19546 24431 24433 28
19547 24431 24434 28
19548 24431 24435 28
19549 24436 24437 28
19550 24436 24438 28
19551 24436 24439 28
19552 24436 24440 28
19553 24441 24442 28
19554 24441 24443 28
19555 24441 24444 28
19556 24441 24445 28
19557 24446 24447 28
19558 24446 24448 28
19559 24446 24449 28
19560 24446 24450 28
19561 24451 24452 28
19562 24451 24453 28
19563 24451 24454 28
19564 24451 24455 28
19565 24456 24457 28
19566 24456 24458 28
19567 24456 24459 28
19568 24456 24460 28
19569 24461 24462 28
19570 24461 24463 28
19571 24461 24464 28
19572 24461 24465 28
19573 24466 24467 28
19574 24466 24468 28
19575 24466 24469 28
19576 24466 24470 28
19577 24471 24472 28
19578 24471 24473 28
19579 24471 24474 28
19580 24471 24475 28
19581 24476 24477 28
19582 24476 24478 28
19583 24476 24479 28
19584 24476 24480 28
19585 24481 24482 28
19586 24481 24483 28
19587 24481 24484 28
19588 24481 24485 28
19589 24486 24487 28
19590 24486 24488 28
19591 24486 24489 28
19592 24486 24490 28
19593 24491 24492 28
19594 24491 24493 28
19595 24491 24494 28
19596 24491 24495 28
19597 24496 24497 28
19598 24496 24498 28
19599 24496 24499 28
19600 24496 24500 28
19601 24501 24502 28
19602 24501 24503 28
19603 24501 24504 28
19604 24501 24505 28
19605 24506 24507 28
19606 24506 24508 28
19607 24506 24509 28
19608 24506 24510 28
19609 24511 24512 28
19610 24511 24513 28
19611 24511 24514 28
19612 24511 24515 28
19613 24516 24517 28
19614 24516 24518 28
19615 24516 24519 28
19616 24516 24520 28
19617 24521 24522 28
19618 24521 24523 28
19619 24521 24524 28
19620 24521 24525 28
19621 24526 24527 28
19622 24526 24528 28
19623 24526 24529 28
19624 24526 24530 28
19625 24531 24532 28
19626 24531 24533 28
19627 24531 24534 28
19628 24531 24535 28
19629 24536 24537 28
19630 24536 24538 28
19631 24536 24539 28
19632 24536 24540 28
19633 24541 24542 28
19634 24541 24543 28
19635 24541 24544 28
19636 24541 24545 28
19637 24546 24547 28
19638 24546 24548 28
19639 24546 24549 28
19640 24546 24550 28
19641 24551 24552 28
19642 24551 24553 28
19643 24551 24554 28
19644 24551 24555 28
19645 24556 24557 28
19646 24556 24558 28
19647 24556 24559 28
19648 24556 24560 28
19649 24561 24562 28
19650 24561 24563 28
19651 24561 24564 28
19652 24561 24565 28
19653 24566 24567 28
19654 24566 24568 28
19655 24566 24569 28
19656 24566 24570 28
19657 24571 24572 28
19658 24571 24573 28
19659 24571 24574 28
19660 24571 24575 28
19661 24576 24577 28
19662 24576 24578 28
19663 24576 24579 28
19664 24576 24580 28
19665 24581 24582 28
19666 24581 24583 28
19667 24581 24584 28
19668 24581 24585 28
19669 24586 24587 28
19670 24586 24588 28
19671 24586 24589 28
19672 24586 24590 28
19673 24591 24592 28
19674 24591 24593 28
19675 24591 24594 28
19676 24591 24595 28
19677 24596 24597 28
19678 24596 24598 28
19679 24596 24599 28
19680 24596 24600 28
19681 24601 24602 28
19682 24601 24603 28
19683 24601 24604 28
19684 24601 24605 28
19685 24606 24607 28
19686 24606 24608 28
19687 24606 24609 28
19688 24606 24610 28
19689 24611 24612 28
19690 24611 24613 28
19691 24611 24614 28
19692 24611 24615 28
19693 24616 24617 28
19694 24616 24618 28
19695 24616 24619 28
19696 24616 24620 28
19697 24621 24622 28
19698 24621 24623 28
19699 24621 24624 28
19700 24621 24625 28
19701 24626 24627 28
19702 24626 24628 28
19703 24626 24629 28
19704 24626 24630 28
19705 24631 24632 28
19706 24631 24633 28
19707 24631 24634 28
19708 24631 24635 28
19709 24636 24637 28
19710 24636 24638 28
19711 24636 24639 28
19712 24636 24640 28
19713 24641 24642 28
19714 24641 24643 28
19715 24641 24644 28
19716 24641 24645 28
19717 24646 24647 28
19718 24646 24648 28
19719 24646 24649 28
19720 24646 24650 28
19721 24651 24652 28
19722 24651 24653 28
19723 24651 24654 28
19724 24651 24655 28
19725 24656 24657 28
19726 24656 24658 28
19727 24656 24659 28
19728 24656 24660 28
19729 24661 24662 28
19730 24661 24663 28
19731 24661 24664 28
19732 24661 24665 28
19733 24666 24667 28
19734 24666 24668 28
19735 24666 24669 28
19736 24666 24670 28
19737 24671 24672 28
19738 24671 24673 28
19739 24671 24674 28
19740 24671 24675 28
19741 24676 24677 28
19742 24676 24678 28
19743 24676 24679 28
19744 24676 24680 28
19745 24681 24682 28
19746 24681 24683 28
19747 24681 24684 28
19748 24681 24685 28
19749 24686 24687 28
19750 24686 24688 28
19751 24686 24689 28
19752 24686 24690 28
19753 24691 24692 28
19754 24691 24693 28
19755 24691 24694 28
19756 24691 24695 28
19757 24696 24697 28
19758 24696 24698 28
19759 24696 24699 28
19760 24696 24700 28
19761 24701 24702 28
19762 24701 24703 28
19763 24701 24704 28
19764 24701 24705 28
19765 24706 24707 28
19766 24706 24708 28
19767 24706 24709 28
19768 24706 24710 28
19769 24711 24712 28
19770 24711 24713 28
19771 24711 24714 28
19772 24711 24715 28
19773 24716 24717 28
19774 24716 24718 28
19775 24716 24719 28
19776 24716 24720 28
19777 24721 24722 28
19778 24721 24723 28
19779 24721 24724 28
19780 24721 24725 28
19781 24726 24727 28
19782 24726 24728 28
19783 24726 24729 28
19784 24726 24730 28
19785 24731 24732 28
19786 24731 24733 28
19787 24731 24734 28
19788 24731 24735 28
19789 24736 24737 28
19790 24736 24738 28
19791 24736 24739 28
19792 24736 24740 28
19793 24741 24742 28
19794 24741 24743 28
19795 24741 24744 28
19796 24741 24745 28
19797 24746 24747 28
19798 24746 24748 28
19799 24746 24749 28
19800 24746 24750 28
19801 24751 24752 28
19802 24751 24753 28
19803 24751 24754 28
19804 24751 24755 28
19805 24756 24757 28
19806 24756 24758 28
19807 24756 24759 28
19808 24756 24760 28
19809 24761 24762 28
19810 24761 24763 28
19811 24761 24764 28
19812 24761 24765 28
19813 24766 24767 28
19814 24766 24768 28
19815 24766 24769 28
19816 24766 24770 28
19817 24771 24772 28
19818 24771 24773 28
19819 24771 24774 28
19820 24771 24775 28
19821 24776 24777 28
19822 24776 24778 28
19823 24776 24779 28
19824 24776 24780 28
19825 24781 24782 28
19826 24781 24783 28
19827 24781 24784 28
19828 24781 24785 28
19829 24786 24787 28
19830 24786 24788 28
19831 24786 24789 28
19832 24786 24790 28
19833 24791 24792 28
19834 24791 24793 28
19835 24791 24794 28
19836 24791 24795 28
19837 24796 24797 28
19838 24796 24798 28
19839 24796 24799 28
19840 24796 24800 28
19841 24801 24802 28
19842 24801 24803 28
19843 24801 24804 28
19844 24801 24805 28
19845 24806 24807 28
19846 24806 24808 28
19847 24806 24809 28
19848 24806 24810 28
19849 24811 24812 28
19850 24811 24813 28
19851 24811 24814 28
19852 24811 24815 28
19853 24816 24817 28
19854 24816 24818 28
19855 24816 24819 28
19856 24816 24820 28
19857 24821 24822 28
19858 24821 24823 28
19859 24821 24824 28
19860 24821 24825 28
19861 24826 24827 28
19862 24826 24828 28
19863 24826 24829 28
19864 24826 24830 28
19865 24831 24832 28
19866 24831 24833 28
19867 24831 24834 28
19868 24831 24835 28
19869 24836 24837 28
19870 24836 24838 28
19871 24836 24839 28
19872 24836 24840 28
19873 24841 24842 28
19874 24841 24843 28
19875 24841 24844 28
19876 24841 24845 28
19877 24846 24847 28
19878 24846 24848 28
19879 24846 24849 28
19880 24846 24850 28
19881 24851 24852 28
19882 24851 24853 28
19883 24851 24854 28
19884 24851 24855 28
19885 24856 24857 28
19886 24856 24858 28
19887 24856 24859 28
19888 24856 24860 28
19889 24861 24862 28
19890 24861 24863 28
19891 24861 24864 28
19892 24861 24865 28
19893 24866 24867 28
19894 24866 24868 28
19895 24866 24869 28
19896 24866 24870 28
19897 24871 24872 28
19898 24871 24873 28
19899 24871 24874 28
19900 24871 24875 28
19901 24876 24877 28
19902 24876 24878 28
19903 24876 24879 28
19904 24876 24880 28
19905 24881 24882 28
19906 24881 24883 28
19907 24881 24884 28
19908 24881 24885 28
19909 24886 24887 28
19910 24886 24888 28
19911 24886 24889 28
19912 24886 24890 28
19913 24891 24892 28
19914 24891 24893 28
19915 24891 24894 28
19916 24891 24895 28
19917 24896 24897 28
19918 24896 24898 28
19919 24896 24899 28
19920 24896 24900 28
19921 24901 24902 28
19922 24901 24903 28
19923 24901 24904 28
19924 24901 24905 28
19925 24906 24907 28
19926 24906 24908 28
19927 24906 24909 28
19928 24906 24910 28
19929 24911 24912 28
19930 24911 24913 28
19931 24911 24914 28
19932 24911 24915 28
19933 24916 24917 28
19934 24916 24918 28
19935 24916 24919 28
19936 24916 24920 28
19937 24921 24922 28
19938 24921 24923 28
19939 24921 24924 28
19940 24921 24925 28
19941 24926 24927 28
19942 24926 24928 28
19943 24926 24929 28
19944 24926 24930 28
19945 24931 24932 28
19946 24931 24933 28
19947 24931 24934 28
19948 24931 24935 28
19949 24936 24937 28
19950 24936 24938 28
19951 24936 24939 28
19952 24936 24940 28
19953 24941 24942 28
19954 24941 24943 28
19955 24941 24944 28
19956 24941 24945 28
19957 24946 24947 28
19958 24946 24948 28
19959 24946 24949 28
19960 24946 24950 28
19961 24951 24952 28
19962 24951 24953 28
19963 24951 24954 28
19964 24951 24955 28
19965 24956 24957 28
19966 24956 24958 28
19967 24956 24959 28
19968 24956 24960 28
19969 24961 24962 28
19970 24961 24963 28
19971 24961 24964 28
19972 24961 24965 28
19973 24966 24967 28
19974 24966 24968 28
19975 24966 24969 28
19976 24966 24970 28
19977 24971 24972 28
19978 24971 24973 28
19979 24971 24974 28
19980 24971 24975 28
19981 24976 24977 28
19982 24976 24978 28
19983 24976 24979 28
19984 24976 24980 28
19985 24981 24982 28
19986 24981 24983 28
19987 24981 24984 28
19988 24981 24985 28
19989 24986 24987 28
19990 24986 24988 28
19991 24986 24989 28
19992 24986 24990 28
19993 24991 24992 28
19994 24991 24993 28
19995 24991 24994 28
19996 24991 24995 28
19997 24996 24997 28
19998 24996 24998 28
19999 24996 24999 28
20000 24996 25000 28
20001 25001 25002 28
20002 25001 25003 28
20003 25001 25004 28
20004 25001 25005 28
20005 25006 25007 28
20006 25006 25008 28
20007 25006 25009 28
20008 25006 25010 28
20009 25011 25012 28
20010 25011 25013 28
20011 25011 25014 28
20012 25011 25015 28
20013 25016 25017 28
20014 25016 25018 28
20015 25016 25019 28
20016 25016 25020 28
20017 25021 25022 28
20018 25021 25023 28
20019 25021 25024 28
20020 25021 25025 28
20021 25026 25027 28
20022 25026 25028 28
20023 25026 25029 28
20024 25026 25030 28
20025 25031 25032 28
20026 25031 25033 28
20027 25031 25034 28
20028 25031 25035 28
20029 25036 25037 28
20030 25036 25038 28
20031 25036 25039 28
20032 25036 25040 28
20033 25041 25042 28
20034 25041 25043 28
20035 25041 25044 28
20036 25041 25045 28
20037 25046 25047 28
20038 25046 25048 28
20039 25046 25049 28
20040 25046 25050 28
20041 25051 25052 28
20042 25051 25053 28
20043 25051 25054 28
20044 25051 25055 28
20045 25056 25057 28
20046 25056 25058 28
20047 25056 25059 28
20048 25056 25060 28
20049 25061 25062 28
20050 25061 25063 28
20051 25061 25064 28
20052 25061 25065 28
20053 25066 25067 28
20054 25066 25068 28
20055 25066 25069 28
20056 25066 25070 28
20057 25071 25072 28
20058 25071 25073 28
20059 25071 25074 28
20060 25071 25075 28
20061 25076 25077 28
20062 25076 25078 28
20063 25076 25079 28
20064 25076 25080 28
20065 25081 25082 28
20066 25081 25083 28
20067 25081 25084 28
20068 25081 25085 28
20069 25086 25087 28
20070 25086 25088 28
20071 25086 25089 28
20072 25086 25090 28
20073 25091 25092 28
20074 25091 25093 28
20075 25091 25094 28
20076 25091 25095 28
20077 25096 25097 28
20078 25096 25098 28
20079 25096 25099 28
20080 25096 25100 28
20081 25101 25102 28
20082 25101 25103 28
20083 25101 25104 28
20084 25101 25105 28
20085 25106 25107 28
20086 25106 25108 28
20087 25106 25109 28
20088 25106 25110 28
20089 25111 25112 28
20090 25111 25113 28
20091 25111 25114 28
20092 25111 25115 28
20093 25116 25117 28
20094 25116 25118 28
20095 25116 25119 28
20096 25116 25120 28
20097 25121 25122 28
20098 25121 25123 28
20099 25121 25124 28
20100 25121 25125 28
20101 25126 25127 28
20102 25126 25128 28
20103 25126 25129 28
20104 25126 25130 28
20105 25131 25132 28
20106 25131 25133 28
20107 25131 25134 28
20108 25131 25135 28
20109 25136 25137 28
20110 25136 25138 28
20111 25136 25139 28
20112 25136 25140 28
20113 25141 25142 28
20114 25141 25143 28
20115 25141 25144 28
20116 25141 25145 28
20117 25146 25147 28
20118 25146 25148 28
20119 25146 25149 28
20120 25146 25150 28
20121 25151 25152 28
20122 25151 25153 28
20123 25151 25154 28
20124 25151 25155 28
20125 25156 25157 28
20126 25156 25158 28
20127 25156 25159 28
20128 25156 25160 28
20129 25161 25162 28
20130 25161 25163 28
20131 25161 25164 28
20132 25161 25165 28
20133 25166 25167 28
20134 25166 25168 28
20135 25166 25169 28
20136 25166 25170 28
20137 25171 25172 28
20138 25171 25173 28
20139 25171 25174 28
20140 25171 25175 28
20141 25176 25177 28
20142 25176 25178 28
20143 25176 25179 28
20144 25176 25180 28
20145 25181 25182 28
20146 25181 25183 28
20147 25181 25184 28
20148 25181 25185 28
20149 25186 25187 28
20150 25186 25188 28
20151 25186 25189 28
20152 25186 25190 28
20153 25191 25192 28
20154 25191 25193 28
20155 25191 25194 28
20156 25191 25195 28
20157 25196 25197 28
20158 25196 25198 28
20159 25196 25199 28
20160 25196 25200 28
20161 25201 25202 28
20162 25201 25203 28
20163 25201 25204 28
20164 25201 25205 28
20165 25206 25207 28
20166 25206 25208 28
20167 25206 25209 28
20168 25206 25210 28
20169 25211 25212 28
20170 25211 25213 28
20171 25211 25214 28
20172 25211 25215 28
20173 25216 25217 28
20174 25216 25218 28
20175 25216 25219 28
20176 25216 25220 28
20177 25221 25222 28
20178 25221 25223 28
20179 25221 25224 28
20180 25221 25225 28
20181 25226 25227 28
20182 25226 25228 28
20183 25226 25229 28
20184 25226 25230 28
20185 25231 25232 28
20186 25231 25233 28
20187 25231 25234 28
20188 25231 25235 28
20189 25236 25237 28
20190 25236 25238 28
20191 25236 25239 28
20192 25236 25240 28
20193 25241 25242 28
20194 25241 25243 28
20195 25241 25244 28
20196 25241 25245 28
20197 25246 25247 28
20198 25246 25248 28
20199 25246 25249 28
20200 25246 25250 28
20201 25251 25252 28
20202 25251 25253 28
20203 25251 25254 28
20204 25251 25255 28
20205 25256 25257 28
20206 25256 25258 28
20207 25256 25259 28
20208 25256 25260 28
20209 25261 25262 28
20210 25261 25263 28
20211 25261 25264 28
20212 25261 25265 28
20213 25266 25267 28
20214 25266 25268 28
20215 25266 25269 28
20216 25266 25270 28
20217 25271 25272 28
20218 25271 25273 28
20219 25271 25274 28
20220 25271 25275 28
20221 25276 25277 28
20222 25276 25278 28
20223 25276 25279 28
20224 25276 25280 28
20225 25281 25282 28
20226 25281 25283 28
20227 25281 25284 28
20228 25281 25285 28
20229 25286 25287 28
20230 25286 25288 28
20231 25286 25289 28
20232 25286 25290 28
20233 25291 25292 28
20234 25291 25293 28
20235 25291 25294 28
20236 25291 25295 28
20237 25296 25297 28
20238 25296 25298 28
20239 25296 25299 28
20240 25296 25300 28
20241 25301 25302 28
20242 25301 25303 28
20243 25301 25304 28
20244 25301 25305 28
20245 25306 25307 28
20246 25306 25308 28
20247 25306 25309 28
20248 25306 25310 28
20249 25311 25312 28
20250 25311 25313 28
20251 25311 25314 28
20252 25311 25315 28
20253 25316 25317 28
20254 25316 25318 28
20255 25316 25319 28
20256 25316 25320 28
20257 25321 25322 28
20258 25321 25323 28
20259 25321 25324 28
20260 25321 25325 28
20261 25326 25327 28
20262 25326 25328 28
20263 25326 25329 28
20264 25326 25330 28
20265 25331 25332 28
20266 25331 25333 28
20267 25331 25334 28
20268 25331 25335 28
20269 25336 25337 28
20270 25336 25338 28
20271 25336 25339 28
20272 25336 25340 28
20273 25341 25342 28
20274 25341 25343 28
20275 25341 25344 28
20276 25341 25345 28
20277 25346 25347 28
20278 25346 25348 28
20279 25346 25349 28
20280 25346 25350 28
20281 25351 25352 28
20282 25351 25353 28
20283 25351 25354 28
20284 25351 25355 28
20285 25356 25357 28
20286 25356 25358 28
20287 25356 25359 28
20288 25356 25360 28
20289 25361 25362 28
20290 25361 25363 28
20291 25361 25364 28
20292 25361 25365 28
20293 25366 25367 28
20294 25366 25368 28
20295 25366 25369 28
20296 25366 25370 28
20297 25371 25372 28
20298 25371 25373 28
20299 25371 25374 28
20300 25371 25375 28
20301 25376 25377 28
20302 25376 25378 28
20303 25376 25379 28
20304 25376 25380 28
20305 25381 25382 28
20306 25381 25383 28
20307 25381 25384 28
20308 25381 25385 28
20309 25386 25387 28
20310 25386 25388 28
20311 25386 25389 28
20312 25386 25390 28
20313 25391 25392 28
20314 25391 25393 28
20315 25391 25394 28
20316 25391 25395 28
20317 25396 25397 28
20318 25396 25398 28
20319 25396 25399 28
20320 25396 25400 28
20321 25401 25402 28
20322 25401 25403 28
20323 25401 25404 28
20324 25401 25405 28
20325 25406 25407 28
20326 25406 25408 28
20327 25406 25409 28
20328 25406 25410 28
20329 25411 25412 28
20330 25411 25413 28
20331 25411 25414 28
20332 25411 25415 28
20333 25416 25417 28
20334 25416 25418 28
20335 25416 25419 28
20336 25416 25420 28
20337 25421 25422 28
20338 25421 25423 28
20339 25421 25424 28
20340 25421 25425 28
20341 25426 25427 28
20342 25426 25428 28
20343 25426 25429 28
20344 25426 25430 28
20345 25431 25432 28
20346 25431 25433 28
20347 25431 25434 28
20348 25431 25435 28
20349 25436 25437 28
20350 25436 25438 28
20351 25436 25439 28
20352 25436 25440 28
20353 25441 25442 28
20354 25441 25443 28
20355 25441 25444 28
20356 25441 25445 28
20357 25446 25447 28
20358 25446 25448 28
20359 25446 25449 28
20360 25446 25450 28
20361 25451 25452 28
20362 25451 25453 28
20363 25451 25454 28
20364 25451 25455 28
20365 25456 25457 28
20366 25456 25458 28
20367 25456 25459 28
20368 25456 25460 28
20369 25461 25462 28
20370 25461 25463 28
20371 25461 25464 28
20372 25461 25465 28
20373 25466 25467 28
20374 25466 25468 28
20375 25466 25469 28
20376 25466 25470 28
20377 25471 25472 28
20378 25471 25473 28
20379 25471 25474 28
20380 25471 25475 28
20381 25476 25477 28
20382 25476 25478 28
20383 25476 25479 28
20384 25476 25480 28
20385 25481 25482 28
20386 25481 25483 28
20387 25481 25484 28
20388 25481 25485 28
20389 25486 25487 28
20390 25486 25488 28
20391 25486 25489 28
20392 25486 25490 28
20393 25491 25492 28
20394 25491 25493 28
20395 25491 25494 28
20396 25491 25495 28
20397 25496 25497 28
20398 25496 25498 28
20399 25496 25499 28
20400 25496 25500 28
20401 25501 25502 28
20402 25501 25503 28
20403 25501 25504 28
20404 25501 25505 28
20405 25506 25507 28
20406 25506 25508 28
20407 25506 25509 28
20408 25506 25510 28
20409 25511 25512 28
20410 25511 25513 28
20411 25511 25514 28
20412 25511 25515 28
20413 25516 25517 28
20414 25516 25518 28
20415 25516 25519 28
20416 25516 25520 28
20417 25521 25522 28
20418 25521 25523 28
20419 25521 25524 28
20420 25521 25525 28
20421 25526 25527 28
20422 25526 25528 28
20423 25526 25529 28
20424 25526 25530 28
20425 25531 25532 28
20426 25531 25533 28
20427 25531 25534 28
20428 25531 25535 28
20429 25536 25537 28
20430 25536 25538 28
20431 25536 25539 28
20432 25536 25540 28
20433 25541 25542 28
20434 25541 25543 28
20435 25541 25544 28
20436 25541 25545 28
20437 25546 25547 28
20438 25546 25548 28
20439 25546 25549 28
20440 25546 25550 28
20441 25551 25552 28
20442 25551 25553 28
20443 25551 25554 28
20444 25551 25555 28
20445 25556 25557 28
20446 25556 25558 28
20447 25556 25559 28
20448 25556 25560 28
20449 25561 25562 28
20450 25561 25563 28
20451 25561 25564 28
20452 25561 25565 28
20453 25566 25567 28
20454 25566 25568 28
20455 25566 25569 28
20456 25566 25570 28
20457 25571 25572 28
20458 25571 25573 28
20459 25571 25574 28
20460 25571 25575 28
20461 25576 25577 28
20462 25576 25578 28
20463 25576 25579 28
20464 25576 25580 28
20465 25581 25582 28
20466 25581 25583 28
20467 25581 25584 28
20468 25581 25585 28
20469 25586 25587 28
20470 25586 25588 28
20471 25586 25589 28
20472 25586 25590 28
20473 25591 25592 28
20474 25591 25593 28
20475 25591 25594 28
20476 25591 25595 28
20477 25596 25597 28
20478 25596 25598 28
20479 25596 25599 28
20480 25596 25600 28
20481 25601 25602 28
20482 25601 25603 28
20483 25601 25604 28
20484 25601 25605 28
20485 25606 25607 28
20486 25606 25608 28
20487 25606 25609 28
20488 25606 25610 28
20489 25611 25612 28
20490 25611 25613 28
20491 25611 25614 28
20492 25611 25615 28
20493 25616 25617 28
20494 25616 25618 28
20495 25616 25619 28
20496 25616 25620 28
20497 25621 25622 28
20498 25621 25623 28
20499 25621 25624 28
20500 25621 25625 28
20501 25626 25627 28
20502 25626 25628 28
20503 25626 25629 28
20504 25626 25630 28
20505 25631 25632 28
20506 25631 25633 28
20507 25631 25634 28
20508 25631 25635 28
20509 25636 25637 28
20510 25636 25638 28
20511 25636 25639 28
20512 25636 25640 28
20513 25641 25642 28
20514 25641 25643 28
20515 25641 25644 28
20516 25641 25645 28
20517 25646 25647 28
20518 25646 25648 28
20519 25646 25649 28
20520 25646 25650 28
20521 25651 25652 28
20522 25651 25653 28
20523 25651 25654 28
20524 25651 25655 28
20525 25656 25657 28
20526 25656 25658 28
20527 25656 25659 28
20528 25656 25660 28
20529 25661 25662 28
20530 25661 25663 28
20531 25661 25664 28
20532 25661 25665 28
20533 25666 25667 28
20534 25666 25668 28
20535 25666 25669 28
20536 25666 25670 28
20537 25671 25672 28
20538 25671 25673 28
20539 25671 25674 28
20540 25671 25675 28
20541 25676 25677 28
20542 25676 25678 28
20543 25676 25679 28
20544 25676 25680 28
20545 25681 25682 28
20546 25681 25683 28
20547 25681 25684 28
20548 25681 25685 28
20549 25686 25687 28
20550 25686 25688 28
20551 25686 25689 28
20552 25686 25690 28
20553 25691 25692 28
20554 25691 25693 28
20555 25691 25694 28
20556 25691 25695 28
20557 25696 25697 28
20558 25696 25698 28
20559 25696 25699 28
20560 25696 25700 28
20561 25701 25702 28
20562 25701 25703 28
20563 25701 25704 28
20564 25701 25705 28
20565 25706 25707 28
20566 25706 25708 28
20567 25706 25709 28
20568 25706 25710 28
20569 25711 25712 28
20570 25711 25713 28
20571 25711 25714 28
20572 25711 25715 28
20573 25716 25717 28
20574 25716 25718 28
20575 25716 25719 28
20576 25716 25720 28
20577 25721 25722 28
20578 25721 25723 28
20579 25721 25724 28
20580 25721 25725 28
20581 25726 25727 28
20582 25726 25728 28
20583 25726 25729 28
20584 25726 25730 28
20585 25731 25732 28
20586 25731 25733 28
20587 25731 25734 28
20588 25731 25735 28
20589 25736 25737 28
20590 25736 25738 28
20591 25736 25739 28
20592 25736 25740 28
20593 25741 25742 28
20594 25741 25743 28
20595 25741 25744 28
20596 25741 25745 28
20597 25746 25747 28
20598 25746 25748 28
20599 25746 25749 28
20600 25746 25750 28
20601 25751 25752 28
20602 25751 25753 28
20603 25751 25754 28
20604 25751 25755 28
20605 25756 25757 28
20606 25756 25758 28
20607 25756 25759 28
20608 25756 25760 28
20609 25761 25762 28
20610 25761 25763 28
20611 25761 25764 28
20612 25761 25765 28
20613 25766 25767 28
20614 25766 25768 28
20615 25766 25769 28
20616 25766 25770 28
20617 25771 25772 28
20618 25771 25773 28
20619 25771 25774 28
20620 25771 25775 28
20621 25776 25777 28
20622 25776 25778 28
20623 25776 25779 28
20624 25776 25780 28
20625 25781 25782 28
20626 25781 25783 28
20627 25781 25784 28
20628 25781 25785 28
20629 25786 25787 28
20630 25786 25788 28
20631 25786 25789 28
20632 25786 25790 28
20633 25791 25792 28
20634 25791 25793 28
20635 25791 25794 28
20636 25791 25795 28
20637 25796 25797 28
20638 25796 25798 28
20639 25796 25799 28
20640 25796 25800 28
20641 25801 25802 28
20642 25801 25803 28
20643 25801 25804 28
20644 25801 25805 28
20645 25806 25807 28
20646 25806 25808 28
20647 25806 25809 28
20648 25806 25810 28
20649 25811 25812 28
20650 25811 25813 28
20651 25811 25814 28
20652 25811 25815 28
20653 25816 25817 28
20654 25816 25818 28
20655 25816 25819 28
20656 25816 25820 28
20657 25821 25822 28
20658 25821 25823 28
20659 25821 25824 28
20660 25821 25825 28
20661 25826 25827 28
20662 25826 25828 28
20663 25826 25829 28
20664 25826 25830 28
20665 25831 25832 28
20666 25831 25833 28
20667 25831 25834 28
20668 25831 25835 28
20669 25836 25837 28
20670 25836 25838 28
20671 25836 25839 28
20672 25836 25840 28
20673 25841 25842 28
20674 25841 25843 28
20675 25841 25844 28
20676 25841 25845 28
20677 25846 25847 28
20678 25846 25848 28
20679 25846 25849 28
20680 25846 25850 28
20681 25851 25852 28
20682 25851 25853 28
20683 25851 25854 28
20684 25851 25855 28
20685 25856 25857 28
20686 25856 25858 28
20687 25856 25859 28
20688 25856 25860 28
20689 25861 25862 28
20690 25861 25863 28
20691 25861 25864 28
20692 25861 25865 28
20693 25866 25867 28
20694 25866 25868 28
20695 25866 25869 28
20696 25866 25870 28
20697 25871 25872 28
20698 25871 25873 28
20699 25871 25874 28
20700 25871 25875 28
20701 25876 25877 28
20702 25876 25878 28
20703 25876 25879 28
20704 25876 25880 28
20705 25881 25882 28
20706 25881 25883 28
20707 25881 25884 28
20708 25881 25885 28
20709 25886 25887 28
20710 25886 25888 28
20711 25886 25889 28
20712 25886 25890 28
20713 25891 25892 28
20714 25891 25893 28
20715 25891 25894 28
20716 25891 25895 28
20717 25896 25897 28
20718 25896 25898 28
20719 25896 25899 28
20720 25896 25900 28
20721 25901 25902 28
20722 25901 25903 28
20723 25901 25904 28
20724 25901 25905 28
20725 25906 25907 28
20726 25906 25908 28
20727 25906 25909 28
20728 25906 25910 28
20729 25911 25912 28
20730 25911 25913 28
20731 25911 25914 28
20732 25911 25915 28
20733 25916 25917 28
20734 25916 25918 28
20735 25916 25919 28
20736 25916 25920 28
20737 25921 25922 28
20738 25921 25923 28
20739 25921 25924 28
20740 25921 25925 28
20741 25926 25927 28
20742 25926 25928 28
20743 25926 25929 28
20744 25926 25930 28
20745 25931 25932 28
20746 25931 25933 28
20747 25931 25934 28
20748 25931 25935 28
20749 25936 25937 28
20750 25936 25938 28
20751 25936 25939 28
20752 25936 25940 28
20753 25941 25942 28
20754 25941 25943 28
20755 25941 25944 28
20756 25941 25945 28
20757 25946 25947 28
20758 25946 25948 28
20759 25946 25949 28
20760 25946 25950 28
20761 25951 25952 28
20762 25951 25953 28
20763 25951 25954 28
20764 25951 25955 28
20765 25956 25957 28
20766 25956 25958 28
20767 25956 25959 28
20768 25956 25960 28
20769 25961 25962 28
20770 25961 25963 28
20771 25961 25964 28
20772 25961 25965 28
20773 25966 25967 28
20774 25966 25968 28
20775 25966 25969 28
20776 25966 25970 28
20777 25971 25972 28
20778 25971 25973 28
20779 25971 25974 28
20780 25971 25975 28
20781 25976 25977 28
20782 25976 25978 28
20783 25976 25979 28
20784 25976 25980 28
20785 25981 25982 28
20786 25981 25983 28
20787 25981 25984 28
20788 25981 25985 28
20789 25986 25987 28
20790 25986 25988 28
20791 25986 25989 28
20792 25986 25990 28
20793 25991 25992 28
20794 25991 25993 28
20795 25991 25994 28
20796 25991 25995 28
20797 25996 25997 28
20798 25996 25998 28
20799 25996 25999 28
20800 25996 26000 28
20801 26001 26002 28
20802 26001 26003 28
20803 26001 26004 28
20804 26001 26005 28
20805 26006 26007 28
20806 26006 26008 28
20807 26006 26009 28
20808 26006 26010 28
20809 26011 26012 28
20810 26011 26013 28
20811 26011 26014 28
20812 26011 26015 28
20813 26016 26017 28
20814 26016 26018 28
20815 26016 26019 28
20816 26016 26020 28
20817 26021 26022 28
20818 26021 26023 28
20819 26021 26024 28
20820 26021 26025 28
20821 26026 26027 28
20822 26026 26028 28
20823 26026 26029 28
20824 26026 26030 28
20825 26031 26032 28
20826 26031 26033 28
20827 26031 26034 28
20828 26031 26035 28
20829 26036 26037 28
20830 26036 26038 28
20831 26036 26039 28
20832 26036 26040 28
20833 26041 26042 28
20834 26041 26043 28
20835 26041 26044 28
20836 26041 26045 28
20837 26046 26047 28
20838 26046 26048 28
20839 26046 26049 28
20840 26046 26050 28
20841 26051 26052 28
20842 26051 26053 28
20843 26051 26054 28
20844 26051 26055 28
20845 26056 26057 28
20846 26056 26058 28
20847 26056 26059 28
20848 26056 26060 28
20849 26061 26062 28
20850 26061 26063 28
20851 26061 26064 28
20852 26061 26065 28
20853 26066 26067 28
20854 26066 26068 28
20855 26066 26069 28
20856 26066 26070 28
20857 26071 26072 28
20858 26071 26073 28
20859 26071 26074 28
20860 26071 26075 28
20861 26076 26077 28
20862 26076 26078 28
20863 26076 26079 28
20864 26076 26080 28
20865 26081 26082 28
20866 26081 26083 28
20867 26081 26084 28
20868 26081 26085 28
20869 26086 26087 28
20870 26086 26088 28
20871 26086 26089 28
20872 26086 26090 28
20873 26091 26092 28
20874 26091 26093 28
20875 26091 26094 28
20876 26091 26095 28
20877 26096 26097 28
20878 26096 26098 28
20879 26096 26099 28
20880 26096 26100 28
20881 26101 26102 28
20882 26101 26103 28
20883 26101 26104 28
20884 26101 26105 28
20885 26106 26107 28
20886 26106 26108 28
20887 26106 26109 28
20888 26106 26110 28
20889 26111 26112 28
20890 26111 26113 28
20891 26111 26114 28
20892 26111 26115 28
20893 26116 26117 28
20894 26116 26118 28
20895 26116 26119 28
20896 26116 26120 28
20897 26121 26122 28
20898 26121 26123 28
20899 26121 26124 28
20900 26121 26125 28
20901 26126 26127 28
20902 26126 26128 28
20903 26126 26129 28
20904 26126 26130 28
20905 26131 26132 28
20906 26131 26133 28
20907 26131 26134 28
20908 26131 26135 28
20909 26136 26137 28
20910 26136 26138 28
20911 26136 26139 28
20912 26136 26140 28
20913 26141 26142 28
20914 26141 26143 28
20915 26141 26144 28
20916 26141 26145 28
20917 26146 26147 28
20918 26146 26148 28
20919 26146 26149 28
20920 26146 26150 28
20921 26151 26152 28
20922 26151 26153 28
20923 26151 26154 28
20924 26151 26155 28
20925 26156 26157 28
20926 26156 26158 28
20927 26156 26159 28
20928 26156 26160 28
20929 26161 26162 28
20930 26161 26163 28
20931 26161 26164 28
20932 26161 26165 28
20933 26166 26167 28
20934 26166 26168 28
20935 26166 26169 28
20936 26166 26170 28
20937 26171 26172 28
20938 26171 26173 28
20939 26171 26174 28
20940 26171 26175 28
20941 26176 26177 28
20942 26176 26178 28
20943 26176 26179 28
20944 26176 26180 28
20945 26181 26182 28
20946 26181 26183 28
20947 26181 26184 28
20948 26181 26185 28
20949 26186 26187 28
20950 26186 26188 28
20951 26186 26189 28
20952 26186 26190 28
20953 26191 26192 28
20954 26191 26193 28
20955 26191 26194 28
20956 26191 26195 28
20957 26196 26197 28
20958 26196 26198 28
20959 26196 26199 28
20960 26196 26200 28
20961 26201 26202 28
20962 26201 26203 28
20963 26201 26204 28
20964 26201 26205 28
20965 26206 26207 28
20966 26206 26208 28
20967 26206 26209 28
20968 26206 26210 28
20969 26211 26212 28
20970 26211 26213 28
20971 26211 26214 28
20972 26211 26215 28
20973 26216 26217 28
20974 26216 26218 28
20975 26216 26219 28
20976 26216 26220 28
20977 26221 26222 28
20978 26221 26223 28
20979 26221 26224 28
20980 26221 26225 28
20981 26226 26227 28
20982 26226 26228 28
20983 26226 26229 28
20984 26226 26230 28
20985 26231 26232 28
20986 26231 26233 28
20987 26231 26234 28
20988 26231 26235 28
20989 26236 26237 28
20990 26236 26238 28
20991 26236 26239 28
20992 26236 26240 28
20993 26241 26242 28
20994 26241 26243 28
20995 26241 26244 28
20996 26241 26245 28
20997 26246 26247 28
20998 26246 26248 28
20999 26246 26249 28
21000 26246 26250 28
21001 26251 26252 28
21002 26251 26253 28
21003 26251 26254 28
21004 26251 26255 28
21005 26256 26257 28
21006 26256 26258 28
21007 26256 26259 28
21008 26256 26260 28
21009 26261 26262 28
21010 26261 26263 28
21011 26261 26264 28
21012 26261 26265 28
21013 26266 26267 28
21014 26266 26268 28
21015 26266 26269 28
21016 26266 26270 28
21017 26271 26272 28
21018 26271 26273 28
21019 26271 26274 28
21020 26271 26275 28
21021 26276 26277 28
21022 26276 26278 28
21023 26276 26279 28
21024 26276 26280 28
21025 26281 26282 28
21026 26281 26283 28
21027 26281 26284 28
21028 26281 26285 28
21029 26286 26287 28
21030 26286 26288 28
21031 26286 26289 28
21032 26286 26290 28
21033 26291 26292 28
21034 26291 26293 28
21035 26291 26294 28
21036 26291 26295 28
21037 26296 26297 28
21038 26296 26298 28
21039 26296 26299 28
21040 26296 26300 28
21041 26301 26302 28
21042 26301 26303 28
21043 26301 26304 28
21044 26301 26305 28
21045 26306 26307 28
21046 26306 26308 28
21047 26306 26309 28
21048 26306 26310 28
21049 26311 26312 28
21050 26311 26313 28
21051 26311 26314 28
21052 26311 26315 28
21053 26316 26317 28
21054 26316 26318 28
21055 26316 26319 28
21056 26316 26320 28
21057 26321 26322 28
21058 26321 26323 28
21059 26321 26324 28
21060 26321 26325 28
21061 26326 26327 28
21062 26326 26328 28
21063 26326 26329 28
21064 26326 26330 28
21065 26331 26332 28
21066 26331 26333 28
21067 26331 26334 28
21068 26331 26335 28
21069 26336 26337 28
21070 26336 26338 28
21071 26336 26339 28
21072 26336 26340 28
21073 26341 26342 28
21074 26341 26343 28
21075 26341 26344 28
21076 26341 26345 28
21077 26346 26347 28
21078 26346 26348 28
21079 26346 26349 28
21080 26346 26350 28
21081 26351 26352 28
21082 26351 26353 28
21083 26351 26354 28
21084 26351 26355 28
21085 26356 26357 28
21086 26356 26358 28
21087 26356 26359 28
21088 26356 26360 28
21089 26361 26362 28
21090 26361 26363 28
21091 26361 26364 28
21092 26361 26365 28
21093 26366 26367 28
21094 26366 26368 28
21095 26366 26369 28
21096 26366 26370 28
21097 26371 26372 28
21098 26371 26373 28
21099 26371 26374 28
21100 26371 26375 28
21101 26376 26377 28
21102 26376 26378 28
21103 26376 26379 28
21104 26376 26380 28
21105 26381 26382 28
21106 26381 26383 28
21107 26381 26384 28
21108 26381 26385 28
21109 26386 26387 28
21110 26386 26388 28
21111 26386 26389 28
21112 26386 26390 28
21113 26391 26392 28
21114 26391 26393 28
21115 26391 26394 28
21116 26391 26395 28
21117 26396 26397 28
21118 26396 26398 28
21119 26396 26399 28
21120 26396 26400 28
21121 26401 26402 28
21122 26401 26403 28
21123 26401 26404 28
21124 26401 26405 28
21125 26406 26407 28
21126 26406 26408 28
21127 26406 26409 28
21128 26406 26410 28
21129 26411 26412 28
21130 26411 26413 28
21131 26411 26414 28
21132 26411 26415 28
21133 26416 26417 28
21134 26416 26418 28
21135 26416 26419 28
21136 26416 26420 28
21137 26421 26422 28
21138 26421 26423 28
21139 26421 26424 28
21140 26421 26425 28
21141 26426 26427 28
21142 26426 26428 28
21143 26426 26429 28
21144 26426 26430 28
21145 26431 26432 28
21146 26431 26433 28
21147 26431 26434 28
21148 26431 26435 28
21149 26436 26437 28
21150 26436 26438 28
21151 26436 26439 28
21152 26436 26440 28
21153 26441 26442 28
21154 26441 26443 28
21155 26441 26444 28
21156 26441 26445 28
21157 26446 26447 28
21158 26446 26448 28
21159 26446 26449 28
21160 26446 26450 28
21161 26451 26452 28
21162 26451 26453 28
21163 26451 26454 28
21164 26451 26455 28
21165 26456 26457 28
21166 26456 26458 28
21167 26456 26459 28
21168 26456 26460 28
21169 26461 26462 28
21170 26461 26463 28
21171 26461 26464 28
21172 26461 26465 28
21173 26466 26467 28
21174 26466 26468 28
21175 26466 26469 28
21176 26466 26470 28
21177 26471 26472 28
21178 26471 26473 28
21179 26471 26474 28
21180 26471 26475 28
21181 26476 26477 28
21182 26476 26478 28
21183 26476 26479 28
21184 26476 26480 28
21185 26481 26482 28
21186 26481 26483 28
21187 26481 26484 28
21188 26481 26485 28
21189 26486 26487 28
21190 26486 26488 28
21191 26486 26489 28
21192 26486 26490 28
21193 26491 26492 28
21194 26491 26493 28
21195 26491 26494 28
21196 26491 26495 28
21197 26496 26497 28
21198 26496 26498 28
21199 26496 26499 28
21200 26496 26500 28
21201 26501 26502 28
21202 26501 26503 28
21203 26501 26504 28
21204 26501 26505 28
21205 26506 26507 28
21206 26506 26508 28
21207 26506 26509 28
21208 26506 26510 28
21209 26511 26512 28
21210 26511 26513 28
21211 26511 26514 28
21212 26511 26515 28
21213 26516 26517 28
21214 26516 26518 28
21215 26516 26519 28
21216 26516 26520 28
21217 26521 26522 28
21218 26521 26523 28
21219 26521 26524 28
21220 26521 26525 28
21221 26526 26527 28
21222 26526 26528 28
21223 26526 26529 28
21224 26526 26530 28
21225 26531 26532 28
21226 26531 26533 28
21227 26531 26534 28
21228 26531 26535 28
21229 26536 26537 28
21230 26536 26538 28
21231 26536 26539 28
21232 26536 26540 28
21233 26541 26542 28
21234 26541 26543 28
21235 26541 26544 28
21236 26541 26545 28
21237 26546 26547 28
21238 26546 26548 28
21239 26546 26549 28
21240 26546 26550 28
21241 26551 26552 28
21242 26551 26553 28
21243 26551 26554 28
21244 26551 26555 28
21245 26556 26557 28
21246 26556 26558 28
21247 26556 26559 28
21248 26556 26560 28
21249 26561 26562 28
21250 26561 26563 28
21251 26561 26564 28
21252 26561 26565 28
21253 26566 26567 28
21254 26566 26568 28
21255 26566 26569 28
21256 26566 26570 28
21257 26571 26572 28
21258 26571 26573 28
21259 26571 26574 28
21260 26571 26575 28
21261 26576 26577 28
21262 26576 26578 28
21263 26576 26579 28
21264 26576 26580 28
21265 26581 26582 28
21266 26581 26583 28
21267 26581 26584 28
21268 26581 26585 28
21269 26586 26587 28
21270 26586 26588 28
21271 26586 26589 28
21272 26586 26590 28
21273 26591 26592 28
21274 26591 26593 28
21275 26591 26594 28
21276 26591 26595 28
21277 26596 26597 28
21278 26596 26598 28
21279 26596 26599 28
21280 26596 26600 28
21281 26601 26602 28
21282 26601 26603 28
21283 26601 26604 28
21284 26601 26605 28
21285 26606 26607 28
21286 26606 26608 28
21287 26606 26609 28
21288 26606 26610 28
21289 26611 26612 28
21290 26611 26613 28
21291 26611 26614 28
21292 26611 26615 28
21293 26616 26617 28
21294 26616 26618 28
21295 26616 26619 28
21296 26616 26620 28
21297 26621 26622 28
21298 26621 26623 28
21299 26621 26624 28
21300 26621 26625 28
21301 26626 26627 28
21302 26626 26628 28
21303 26626 26629 28
21304 26626 26630 28
21305 26631 26632 28
21306 26631 26633 28
21307 26631 26634 28
21308 26631 26635 28
21309 26636 26637 28
21310 26636 26638 28
21311 26636 26639 28
21312 26636 26640 28
21313 26641 26642 28
21314 26641 26643 28
21315 26641 26644 28
21316 26641 26645 28
21317 26646 26647 28
21318 26646 26648 28
21319 26646 26649 28
21320 26646 26650 28
21321 26651 26652 28
21322 26651 26653 28
21323 26651 26654 28
21324 26651 26655 28
21325 26656 26657 28
21326 26656 26658 28
21327 26656 26659 28
21328 26656 26660 28
21329 26661 26662 28
21330 26661 26663 28
21331 26661 26664 28
21332 26661 26665 28
21333 26666 26667 28
21334 26666 26668 28
21335 26666 26669 28
21336 26666 26670 28
21337 26671 26672 28
21338 26671 26673 28
21339 26671 26674 28
21340 26671 26675 28
21341 26676 26677 28
21342 26676 26678 28
21343 26676 26679 28
21344 26676 26680 28
21345 26681 26682 28
21346 26681 26683 28
21347 26681 26684 28
21348 26681 26685 28
21349 26686 26687 28
21350 26686 26688 28
21351 26686 26689 28
21352 26686 26690 28
21353 26691 26692 28
21354 26691 26693 28
21355 26691 26694 28
21356 26691 26695 28
21357 26696 26697 28
21358 26696 26698 28
21359 26696 26699 28
21360 26696 26700 28
21361 26701 26702 28
21362 26701 26703 28
21363 26701 26704 28
21364 26701 26705 28
21365 26706 26707 28
21366 26706 26708 28
21367 26706 26709 28
21368 26706 26710 28
21369 26711 26712 28
21370 26711 26713 28
21371 26711 26714 28
21372 26711 26715 28
21373 26716 26717 28
21374 26716 26718 28
21375 26716 26719 28
21376 26716 26720 28
21377 26721 26722 28
21378 26721 26723 28
21379 26721 26724 28
21380 26721 26725 28
21381 26726 26727 28
21382 26726 26728 28
21383 26726 26729 28
21384 26726 26730 28
21385 26731 26732 28
21386 26731 26733 28
21387 26731 26734 28
21388 26731 26735 28
21389 26736 26737 28
21390 26736 26738 28
21391 26736 26739 28
21392 26736 26740 28
21393 26741 26742 28
21394 26741 26743 28
21395 26741 26744 28
21396 26741 26745 28
21397 26746 26747 28
21398 26746 26748 28
21399 26746 26749 28
21400 26746 26750 28
21401 26751 26752 28
21402 26751 26753 28
21403 26751 26754 28
21404 26751 26755 28
21405 26756 26757 28
21406 26756 26758 28
21407 26756 26759 28
21408 26756 26760 28
21409 26761 26762 28
21410 26761 26763 28
21411 26761 26764 28
21412 26761 26765 28
21413 26766 26767 28
21414 26766 26768 28
21415 26766 26769 28
21416 26766 26770 28
21417 26771 26772 28
21418 26771 26773 28
21419 26771 26774 28
21420 26771 26775 28
21421 26776 26777 28
21422 26776 26778 28
21423 26776 26779 28
21424 26776 26780 28
21425 26781 26782 28
21426 26781 26783 28
21427 26781 26784 28
21428 26781 26785 28
21429 26786 26787 28
21430 26786 26788 28
21431 26786 26789 28
21432 26786 26790 28
21433 26791 26792 28
21434 26791 26793 28
21435 26791 26794 28
21436 26791 26795 28
21437 26796 26797 28
21438 26796 26798 28
21439 26796 26799 28
21440 26796 26800 28
21441 26801 26802 28
21442 26801 26803 28
21443 26801 26804 28
21444 26801 26805 28
21445 26806 26807 28
21446 26806 26808 28
21447 26806 26809 28
21448 26806 26810 28
21449 26811 26812 28
21450 26811 26813 28
21451 26811 26814 28
21452 26811 26815 28
21453 26816 26817 28
21454 26816 26818 28
21455 26816 26819 28
21456 26816 26820 28
21457 26821 26822 28
21458 26821 26823 28
21459 26821 26824 28
21460 26821 26825 28
21461 26826 26827 28
21462 26826 26828 28
21463 26826 26829 28
21464 26826 26830 28
21465 26831 26832 28
21466 26831 26833 28
21467 26831 26834 28
21468 26831 26835 28
21469 26836 26837 28
21470 26836 26838 28
21471 26836 26839 28
21472 26836 26840 28
21473 26841 26842 28
21474 26841 26843 28
21475 26841 26844 28
21476 26841 26845 28
21477 26846 26847 28
21478 26846 26848 28
21479 26846 26849 28
21480 26846 26850 28
21481 26851 26852 28
21482 26851 26853 28
21483 26851 26854 28
21484 26851 26855 28
21485 26856 26857 28
21486 26856 26858 28
21487 26856 26859 28
21488 26856 26860 28
21489 26861 26862 28
21490 26861 26863 28
21491 26861 26864 28
21492 26861 26865 28
21493 26866 26867 28
21494 26866 26868 28
21495 26866 26869 28
21496 26866 26870 28
21497 26871 26872 28
21498 26871 26873 28
21499 26871 26874 28
21500 26871 26875 28
21501 26876 26877 28
21502 26876 26878 28
21503 26876 26879 28
21504 26876 26880 28
21505 26881 26882 28
21506 26881 26883 28
21507 26881 26884 28
21508 26881 26885 28
21509 26886 26887 28
21510 26886 26888 28
21511 26886 26889 28
21512 26886 26890 28
21513 26891 26892 28
21514 26891 26893 28
21515 26891 26894 28
21516 26891 26895 28
21517 26896 26897 28
21518 26896 26898 28
21519 26896 26899 28
21520 26896 26900 28
21521 26901 26902 28
21522 26901 26903 28
21523 26901 26904 28
21524 26901 26905 28
21525 26906 26907 28
21526 26906 26908 28
21527 26906 26909 28
21528 26906 26910 28
21529 26911 26912 28
21530 26911 26913 28
21531 26911 26914 28
21532 26911 26915 28
21533 26916 26917 28
21534 26916 26918 28
21535 26916 26919 28
21536 26916 26920 28
21537 26921 26922 28
21538 26921 26923 28
21539 26921 26924 28
21540 26921 26925 28
21541 26926 26927 28
21542 26926 26928 28
21543 26926 26929 28
21544 26926 26930 28
21545 26931 26932 28
21546 26931 26933 28
21547 26931 26934 28
21548 26931 26935 28
21549 26936 26937 28
21550 26936 26938 28
21551 26936 26939 28
21552 26936 26940 28
21553 26941 26942 28
21554 26941 26943 28
21555 26941 26944 28
21556 26941 26945 28
21557 26946 26947 28
21558 26946 26948 28
21559 26946 26949 28
21560 26946 26950 28
21561 26951 26952 28
21562 26951 26953 28
21563 26951 26954 28
21564 26951 26955 28
21565 26956 26957 28
21566 26956 26958 28
21567 26956 26959 28
21568 26956 26960 28
21569 26961 26962 28
21570 26961 26963 28
21571 26961 26964 28
21572 26961 26965 28
21573 26966 26967 28
21574 26966 26968 28
21575 26966 26969 28
21576 26966 26970 28
21577 26971 26972 28
21578 26971 26973 28
21579 26971 26974 28
21580 26971 26975 28
21581 26976 26977 28
21582 26976 26978 28
21583 26976 26979 28
21584 26976 26980 28
21585 26981 26982 28
21586 26981 26983 28
21587 26981 26984 28
21588 26981 26985 28
21589 26986 26987 28
21590 26986 26988 28
21591 26986 26989 28
21592 26986 26990 28
21593 26991 26992 28
21594 26991 26993 28
21595 26991 26994 28
21596 26991 26995 28
21597 26996 26997 28
21598 26996 26998 28
21599 26996 26999 28
21600 26996 27000 28
21601 27001 27002 28
21602 27001 27003 28
21603 27001 27004 28
21604 27001 27005 28
21605 27006 27007 28
21606 27006 27008 28
21607 27006 27009 28
21608 27006 27010 28
21609 27011 27012 28
21610 27011 27013 28
21611 27011 27014 28
21612 27011 27015 28
21613 27016 27017 28
21614 27016 27018 28
21615 27016 27019 28
21616 27016 27020 28
21617 27021 27022 28
21618 27021 27023 28
21619 27021 27024 28
21620 27021 27025 28
21621 27026 27027 28
21622 27026 27028 28
21623 27026 27029 28
21624 27026 27030 28
21625 27031 27032 28
21626 27031 27033 28
21627 27031 27034 28
21628 27031 27035 28
21629 27036 27037 28
21630 27036 27038 28
21631 27036 27039 28
21632 27036 27040 28
21633 27041 27042 28
21634 27041 27043 28
21635 27041 27044 28
21636 27041 27045 28
21637 27046 27047 28
21638 27046 27048 28
21639 27046 27049 28
21640 27046 27050 28
21641 27051 27052 28
21642 27051 27053 28
21643 27051 27054 28
21644 27051 27055 28
21645 27056 27057 28
21646 27056 27058 28
21647 27056 27059 28
21648 27056 27060 28
21649 27061 27062 28
21650 27061 27063 28
21651 27061 27064 28
21652 27061 27065 28
21653 27066 27067 28
21654 27066 27068 28
21655 27066 27069 28
21656 27066 27070 28
21657 27071 27072 28
21658 27071 27073 28
21659 27071 27074 28
21660 27071 27075 28
21661 27076 27077 28
21662 27076 27078 28
21663 27076 27079 28
21664 27076 27080 28
21665 27081 27082 28
21666 27081 27083 28
21667 27081 27084 28
21668 27081 27085 28
21669 27086 27087 28
21670 27086 27088 28
21671 27086 27089 28
21672 27086 27090 28
21673 27091 27092 28
21674 27091 27093 28
21675 27091 27094 28
21676 27091 27095 28
21677 27096 27097 28
21678 27096 27098 28
21679 27096 27099 28
21680 27096 27100 28
21681 27101 27102 28
21682 27101 27103 28
21683 27101 27104 28
21684 27101 27105 28
21685 27106 27107 28
21686 27106 27108 28
21687 27106 27109 28
21688 27106 27110 28
21689 27111 27112 28
21690 27111 27113 28
21691 27111 27114 28
21692 27111 27115 28
21693 27116 27117 28
21694 27116 27118 28
21695 27116 27119 28
21696 27116 27120 28
21697 27121 27122 28
21698 27121 27123 28
21699 27121 27124 28
21700 27121 27125 28
21701 27126 27127 28
21702 27126 27128 28
21703 27126 27129 28
21704 27126 27130 28
21705 27131 27132 28
21706 27131 27133 28
21707 27131 27134 28
21708 27131 27135 28
21709 27136 27137 28
21710 27136 27138 28
21711 27136 27139 28
21712 27136 27140 28
21713 27141 27142 28
21714 27141 27143 28
21715 27141 27144 28
21716 27141 27145 28
21717 27146 27147 28
21718 27146 27148 28
21719 27146 27149 28
21720 27146 27150 28
21721 27151 27152 28
21722 27151 27153 28
21723 27151 27154 28
21724 27151 27155 28
21725 27156 27157 28
21726 27156 27158 28
21727 27156 27159 28
21728 27156 27160 28
21729 27161 27162 28
21730 27161 27163 28
21731 27161 27164 28
21732 27161 27165 28
21733 27166 27167 28
21734 27166 27168 28
21735 27166 27169 28
21736 27166 27170 28
21737 27171 27172 28
21738 27171 27173 28
21739 27171 27174 28
21740 27171 27175 28
21741 27176 27177 28
21742 27176 27178 28
21743 27176 27179 28
21744 27176 27180 28
21745 27181 27182 28
21746 27181 27183 28
21747 27181 27184 28
21748 27181 27185 28
21749 27186 27187 28
21750 27186 27188 28
21751 27186 27189 28
21752 27186 27190 28
21753 27191 27192 28
21754 27191 27193 28
21755 27191 27194 28
21756 27191 27195 28
21757 27196 27197 28
21758 27196 27198 28
21759 27196 27199 28
21760 27196 27200 28
21761 27201 27202 28
21762 27201 27203 28
21763 27201 27204 28
21764 27201 27205 28
21765 27206 27207 28
21766 27206 27208 28
21767 27206 27209 28
21768 27206 27210 28
21769 27211 27212 28
21770 27211 27213 28
21771 27211 27214 28
21772 27211 27215 28
21773 27216 27217 28
21774 27216 27218 28
21775 27216 27219 28
21776 27216 27220 28
21777 27221 27222 28
21778 27221 27223 28
21779 27221 27224 28
21780 27221 27225 28
21781 27226 27227 28
21782 27226 27228 28
21783 27226 27229 28
21784 27226 27230 28
21785 27231 27232 28
21786 27231 27233 28
21787 27231 27234 28
21788 27231 27235 28
21789 27236 27237 28
21790 27236 27238 28
21791 27236 27239 28
21792 27236 27240 28
21793 27241 27242 28
21794 27241 27243 28
21795 27241 27244 28
21796 27241 27245 28
21797 27246 27247 28
21798 27246 27248 28
21799 27246 27249 28
21800 27246 27250 28
21801 27251 27252 28
21802 27251 27253 28
21803 27251 27254 28
21804 27251 27255 28
21805 27256 27257 28
21806 27256 27258 28
21807 27256 27259 28
21808 27256 27260 28
21809 27261 27262 28
21810 27261 27263 28
21811 27261 27264 28
21812 27261 27265 28
21813 27266 27267 28
21814 27266 27268 28
21815 27266 27269 28
21816 27266 27270 28
21817 27271 27272 28
21818 27271 27273 28
21819 27271 27274 28
21820 27271 27275 28
21821 27276 27277 28
21822 27276 27278 28
21823 27276 27279 28
21824 27276 27280 28
21825 27281 27282 28
21826 27281 27283 28
21827 27281 27284 28
21828 27281 27285 28
21829 27286 27287 28
21830 27286 27288 28
21831 27286 27289 28
21832 27286 27290 28
21833 27291 27292 28
21834 27291 27293 28
21835 27291 27294 28
21836 27291 27295 28
21837 27296 27297 28
21838 27296 27298 28
21839 27296 27299 28
21840 27296 27300 28
21841 27301 27302 28
21842 27301 27303 28
21843 27301 27304 28
21844 27301 27305 28
21845 27306 27307 28
21846 27306 27308 28
21847 27306 27309 28
21848 27306 27310 28
21849 27311 27312 28
21850 27311 27313 28
21851 27311 27314 28
21852 27311 27315 28
21853 27316 27317 28
21854 27316 27318 28
21855 27316 27319 28
21856 27316 27320 28
21857 27321 27322 28
21858 27321 27323 28
21859 27321 27324 28
21860 27321 27325 28
21861 27326 27327 28
21862 27326 27328 28
21863 27326 27329 28
21864 27326 27330 28
21865 27331 27332 28
21866 27331 27333 28
21867 27331 27334 28
21868 27331 27335 28
21869 27336 27337 28
21870 27336 27338 28
21871 27336 27339 28
21872 27336 27340 28
21873 27341 27342 28
21874 27341 27343 28
21875 27341 27344 28
21876 27341 27345 28
21877 27346 27347 28
21878 27346 27348 28
21879 27346 27349 28
21880 27346 27350 28
21881 27351 27352 28
21882 27351 27353 28
21883 27351 27354 28
21884 27351 27355 28
21885 27356 27357 28
21886 27356 27358 28
21887 27356 27359 28
21888 27356 27360 28
21889 27361 27362 28
21890 27361 27363 28
21891 27361 27364 28
21892 27361 27365 28
21893 27366 27367 28
21894 27366 27368 28
21895 27366 27369 28
21896 27366 27370 28
21897 27371 27372 28
21898 27371 27373 28
21899 27371 27374 28
21900 27371 27375 28
21901 27376 27377 28
21902 27376 27378 28
21903 27376 27379 28
21904 27376 27380 28
21905 27381 27382 28
21906 27381 27383 28
21907 27381 27384 28
21908 27381 27385 28
21909 27386 27387 28
21910 27386 27388 28
21911 27386 27389 28
21912 27386 27390 28
21913 27391 27392 28
21914 27391 27393 28
21915 27391 27394 28
21916 27391 27395 28
21917 27396 27397 28
21918 27396 27398 28
21919 27396 27399 28
21920 27396 27400 28
21921 27401 27402 28
21922 27401 27403 28
21923 27401 27404 28
21924 27401 27405 28
21925 27406 27407 28
21926 27406 27408 28
21927 27406 27409 28
21928 27406 27410 28
21929 27411 27412 28
21930 27411 27413 28
21931 27411 27414 28
21932 27411 27415 28
21933 27416 27417 28
21934 27416 27418 28
21935 27416 27419 28
21936 27416 27420 28
21937 27421 27422 28
21938 27421 27423 28
21939 27421 27424 28
21940 27421 27425 28
21941 27426 27427 28
21942 27426 27428 28
21943 27426 27429 28
21944 27426 27430 28
21945 27431 27432 28
21946 27431 27433 28
21947 27431 27434 28
21948 27431 27435 28
21949 27436 27437 28
21950 27436 27438 28
21951 27436 27439 28
21952 27436 27440 28
21953 27441 27442 28
21954 27441 27443 28
21955 27441 27444 28
21956 27441 27445 28
21957 27446 27447 28
21958 27446 27448 28
21959 27446 27449 28
21960 27446 27450 28
21961 27451 27452 28
21962 27451 27453 28
21963 27451 27454 28
21964 27451 27455 28
21965 27456 27457 28
21966 27456 27458 28
21967 27456 27459 28
21968 27456 27460 28
21969 27461 27462 28
21970 27461 27463 28
21971 27461 27464 28
21972 27461 27465 28
21973 27466 27467 28
21974 27466 27468 28
21975 27466 27469 28
21976 27466 27470 28
21977 27471 27472 28
21978 27471 27473 28
21979 27471 27474 28
21980 27471 27475 28
21981 27476 27477 28
21982 27476 27478 28
21983 27476 27479 28
21984 27476 27480 28
21985 27481 27482 28
21986 27481 27483 28
21987 27481 27484 28
21988 27481 27485 28
21989 27486 27487 28
21990 27486 27488 28
21991 27486 27489 28
21992 27486 27490 28
21993 27491 27492 28
21994 27491 27493 28
21995 27491 27494 28
21996 27491 27495 28
21997 27496 27497 28
21998 27496 27498 28
21999 27496 27499 28
22000 27496 27500 28
22001 27501 27502 28
22002 27501 27503 28
22003 27501 27504 28
22004 27501 27505 28
22005 27506 27507 28
22006 27506 27508 28
22007 27506 27509 28
22008 27506 27510 28
22009 27511 27512 28
22010 27511 27513 28
22011 27511 27514 28
22012 27511 27515 28
22013 27516 27517 28
22014 27516 27518 28
22015 27516 27519 28
22016 27516 27520 28
22017 27521 27522 28
22018 27521 27523 28
22019 27521 27524 28
22020 27521 27525 28
22021 27526 27527 28
22022 27526 27528 28
22023 27526 27529 28
22024 27526 27530 28
22025 27531 27532 28
22026 27531 27533 28
22027 27531 27534 28
22028 27531 27535 28
22029 27536 27537 28
22030 27536 27538 28
22031 27536 27539 28
22032 27536 27540 28
22033 27541 27542 28
22034 27541 27543 28
22035 27541 27544 28
22036 27541 27545 28
22037 27546 27547 28
22038 27546 27548 28
22039 27546 27549 28
22040 27546 27550 28
22041 27551 27552 28
22042 27551 27553 28
22043 27551 27554 28
22044 27551 27555 28
22045 27556 27557 28
22046 27556 27558 28
22047 27556 27559 28
22048 27556 27560 28
22049 27561 27562 28
22050 27561 27563 28
22051 27561 27564 28
22052 27561 27565 28
22053 27566 27567 28
22054 27566 27568 28
22055 27566 27569 28
22056 27566 27570 28
22057 27571 27572 28
22058 27571 27573 28
22059 27571 27574 28
22060 27571 27575 28
22061 27576 27577 28
22062 27576 27578 28
22063 27576 27579 28
22064 27576 27580 28
22065 27581 27582 28
22066 27581 27583 28
22067 27581 27584 28
22068 27581 27585 28
22069 27586 27587 28
22070 27586 27588 28
22071 27586 27589 28
22072 27586 27590 28
22073 27591 27592 28
22074 27591 27593 28
22075 27591 27594 28
22076 27591 27595 28
22077 27596 27597 28
22078 27596 27598 28
22079 27596 27599 28
22080 27596 27600 28
22081 27601 27602 28
22082 27601 27603 28
22083 27601 27604 28
22084 27601 27605 28
22085 27606 27607 28
22086 27606 27608 28
22087 27606 27609 28
22088 27606 27610 28
22089 27611 27612 28
22090 27611 27613 28
22091 27611 27614 28
22092 27611 27615 28
22093 27616 27617 28
22094 27616 27618 28
22095 27616 27619 28
22096 27616 27620 28
22097 27621 27622 28
22098 27621 27623 28
22099 27621 27624 28
22100 27621 27625 28
22101 27626 27627 28
22102 27626 27628 28
22103 27626 27629 28
22104 27626 27630 28
22105 27631 27632 28
22106 27631 27633 28
22107 27631 27634 28
22108 27631 27635 28
22109 27636 27637 28
22110 27636 27638 28
22111 27636 27639 28
22112 27636 27640 28
22113 27641 27642 28
22114 27641 27643 28
22115 27641 27644 28
22116 27641 27645 28
22117 27646 27647 28
22118 27646 27648 28
22119 27646 27649 28
22120 27646 27650 28
22121 27651 27652 28
22122 27651 27653 28
22123 27651 27654 28
22124 27651 27655 28
22125 27656 27657 28
22126 27656 27658 28
22127 27656 27659 28
22128 27656 27660 28
22129 27661 27662 28
22130 27661 27663 28
22131 27661 27664 28
22132 27661 27665 28
22133 27666 27667 28
22134 27666 27668 28
22135 27666 27669 28
22136 27666 27670 28
22137 27671 27672 28
22138 27671 27673 28
22139 27671 27674 28
22140 27671 27675 28
22141 27676 27677 28
22142 27676 27678 28
22143 27676 27679 28
22144 27676 27680 28
22145 27681 27682 28
22146 27681 27683 28
22147 27681 27684 28
22148 27681 27685 28
22149 27686 27687 28
22150 27686 27688 28
22151 27686 27689 28
22152 27686 27690 28
22153 27691 27692 28
22154 27691 27693 28
22155 27691 27694 28
22156 27691 27695 28
22157 27696 27697 28
22158 27696 27698 28
22159 27696 27699 28
22160 27696 27700 28
22161 27701 27702 28
22162 27701 27703 28
22163 27701 27704 28
22164 27701 27705 28
22165 27706 27707 28
22166 27706 27708 28
22167 27706 27709 28
22168 27706 27710 28
22169 27711 27712 28
22170 27711 27713 28
22171 27711 27714 28
22172 27711 27715 28
22173 27716 27717 28
22174 27716 27718 28
22175 27716 27719 28
22176 27716 27720 28
22177 27721 27722 28
22178 27721 27723 28
22179 27721 27724 28
22180 27721 27725 28
22181 27726 27727 28
22182 27726 27728 28
22183 27726 27729 28
22184 27726 27730 28
22185 27731 27732 28
22186 27731 27733 28
22187 27731 27734 28
22188 27731 27735 28
22189 27736 27737 28
22190 27736 27738 28
22191 27736 27739 28
22192 27736 27740 28
22193 27741 27742 28
22194 27741 27743 28
22195 27741 27744 28
22196 27741 27745 28
22197 27746 27747 28
22198 27746 27748 28
22199 27746 27749 28
22200 27746 27750 28
22201 27751 27752 28
22202 27751 27753 28
22203 27751 27754 28
22204 27751 27755 28
22205 27756 27757 28
22206 27756 27758 28
22207 27756 27759 28
22208 27756 27760 28
22209 27761 27762 28
22210 27761 27763 28
22211 27761 27764 28
22212 27761 27765 28
22213 27766 27767 28
22214 27766 27768 28
22215 27766 27769 28
22216 27766 27770 28
22217 27771 27772 28
22218 27771 27773 28
22219 27771 27774 28
22220 27771 27775 28
22221 27776 27777 28
22222 27776 27778 28
22223 27776 27779 28
22224 27776 27780 28
22225 27781 27782 28
22226 27781 27783 28
22227 27781 27784 28
22228 27781 27785 28
22229 27786 27787 28
22230 27786 27788 28
22231 27786 27789 28
22232 27786 27790 28
22233 27791 27792 28
22234 27791 27793 28
22235 27791 27794 28
22236 27791 27795 28
22237 27796 27797 28
22238 27796 27798 28
22239 27796 27799 28
22240 27796 27800 28
22241 27801 27802 28
22242 27801 27803 28
22243 27801 27804 28
22244 27801 27805 28
22245 27806 27807 28
22246 27806 27808 28
22247 27806 27809 28
22248 27806 27810 28
22249 27811 27812 28
22250 27811 27813 28
22251 27811 27814 28
22252 27811 27815 28
22253 27816 27817 28
22254 27816 27818 28
22255 27816 27819 28
22256 27816 27820 28
22257 27821 27822 28
22258 27821 27823 28
22259 27821 27824 28
22260 27821 27825 28
22261 27826 27827 28
22262 27826 27828 28
22263 27826 27829 28
22264 27826 27830 28
22265 27831 27832 28
22266 27831 27833 28
22267 27831 27834 28
22268 27831 27835 28
22269 27836 27837 28
22270 27836 27838 28
22271 27836 27839 28
22272 27836 27840 28
22273 27841 27842 28
22274 27841 27843 28
22275 27841 27844 28
22276 27841 27845 28
22277 27846 27847 28
22278 27846 27848 28
22279 27846 27849 28
22280 27846 27850 28
22281 27851 27852 28
22282 27851 27853 28
22283 27851 27854 28
22284 27851 27855 28
22285 27856 27857 28
22286 27856 27858 28
22287 27856 27859 28
22288 27856 27860 28
22289 27861 27862 28
22290 27861 27863 28
22291 27861 27864 28
22292 27861 27865 28
22293 27866 27867 28
22294 27866 27868 28
22295 27866 27869 28
22296 27866 27870 28
22297 27871 27872 28
22298 27871 27873 28
22299 27871 27874 28
22300 27871 27875 28
22301 27876 27877 28
22302 27876 27878 28
22303 27876 27879 28
22304 27876 27880 28
22305 27881 27882 28
22306 27881 27883 28
22307 27881 27884 28
22308 27881 27885 28
22309 27886 27887 28
22310 27886 27888 28
22311 27886 27889 28
22312 27886 27890 28
22313 27891 27892 28
22314 27891 27893 28
22315 27891 27894 28
22316 27891 27895 28
22317 27896 27897 28
22318 27896 27898 28
22319 27896 27899 28
22320 27896 27900 28
22321 27901 27902 28
22322 27901 27903 28
22323 27901 27904 28
22324 27901 27905 28
22325 27906 27907 28
22326 27906 27908 28
22327 27906 27909 28
22328 27906 27910 28
22329 27911 27912 28
22330 27911 27913 28
22331 27911 27914 28
22332 27911 27915 28
22333 27916 27917 28
22334 27916 27918 28
22335 27916 27919 28
22336 27916 27920 28
22337 27921 27922 28
22338 27921 27923 28
22339 27921 27924 28
22340 27921 27925 28
22341 27926 27927 28
22342 27926 27928 28
22343 27926 27929 28
22344 27926 27930 28
22345 27931 27932 28
22346 27931 27933 28
22347 27931 27934 28
22348 27931 27935 28
22349 27936 27937 28
22350 27936 27938 28
22351 27936 27939 28
22352 27936 27940 28
22353 27941 27942 28
22354 27941 27943 28
22355 27941 27944 28
22356 27941 27945 28
22357 27946 27947 28
22358 27946 27948 28
22359 27946 27949 28
22360 27946 27950 28
22361 27951 27952 28
22362 27951 27953 28
22363 27951 27954 28
22364 27951 27955 28
22365 27956 27957 28
22366 27956 27958 28
22367 27956 27959 28
22368 27956 27960 28
22369 27961 27962 28
22370 27961 27963 28
22371 27961 27964 28
22372 27961 27965 28
22373 27966 27967 28
22374 27966 27968 28
22375 27966 27969 28
22376 27966 27970 28
22377 27971 27972 28
22378 27971 27973 28
22379 27971 27974 28
22380 27971 27975 28
22381 27976 27977 28
22382 27976 27978 28
22383 27976 27979 28
22384 27976 27980 28
22385 27981 27982 28
22386 27981 27983 28
22387 27981 27984 28
22388 27981 27985 28
22389 27986 27987 28
22390 27986 27988 28
22391 27986 27989 28
22392 27986 27990 28
22393 27991 27992 28
22394 27991 27993 28
22395 27991 27994 28
22396 27991 27995 28
22397 27996 27997 28
22398 27996 27998 28
22399 27996 27999 28
22400 27996 28000 28
22401 28001 28002 28
22402 28001 28003 28
22403 28001 28004 28
22404 28001 28005 28
22405 28006 28007 28
22406 28006 28008 28
22407 28006 28009 28
22408 28006 28010 28
22409 28011 28012 28
22410 28011 28013 28
22411 28011 28014 28
22412 28011 28015 28
22413 28016 28017 28
22414 28016 28018 28
22415 28016 28019 28
22416 28016 28020 28
22417 28021 28022 28
22418 28021 28023 28
22419 28021 28024 28
22420 28021 28025 28
22421 28026 28027 28
22422 28026 28028 28
22423 28026 28029 28
22424 28026 28030 28
22425 28031 28032 28
22426 28031 28033 28
22427 28031 28034 28
22428 28031 28035 28
22429 28036 28037 28
22430 28036 28038 28
22431 28036 28039 28
22432 28036 28040 28
22433 28041 28042 28
22434 28041 28043 28
22435 28041 28044 28
22436 28041 28045 28
22437 28046 28047 28
22438 28046 28048 28
22439 28046 28049 28
22440 28046 28050 28
22441 28051 28052 28
22442 28051 28053 28
22443 28051 28054 28
22444 28051 28055 28
22445 28056 28057 28
22446 28056 28058 28
22447 28056 28059 28
22448 28056 28060 28
22449 28061 28062 28
22450 28061 28063 28
22451 28061 28064 28
22452 28061 28065 28
22453 28066 28067 28
22454 28066 28068 28
22455 28066 28069 28
22456 28066 28070 28
22457 28071 28072 28
22458 28071 28073 28
22459 28071 28074 28
22460 28071 28075 28
22461 28076 28077 28
22462 28076 28078 28
22463 28076 28079 28
22464 28076 28080 28
22465 28081 28082 28
22466 28081 28083 28
22467 28081 28084 28
22468 28081 28085 28
22469 28086 28087 28
22470 28086 28088 28
22471 28086 28089 28
22472 28086 28090 28
22473 28091 28092 28
22474 28091 28093 28
22475 28091 28094 28
22476 28091 28095 28
22477 28096 28097 28
22478 28096 28098 28
22479 28096 28099 28
22480 28096 28100 28
22481 28101 28102 28
22482 28101 28103 28
22483 28101 28104 28
22484 28101 28105 28
22485 28106 28107 28
22486 28106 28108 28
22487 28106 28109 28
22488 28106 28110 28
22489 28111 28112 28
22490 28111 28113 28
22491 28111 28114 28
22492 28111 28115 28
22493 28116 28117 28
22494 28116 28118 28
22495 28116 28119 28
22496 28116 28120 28
22497 28121 28122 28
22498 28121 28123 28
22499 28121 28124 28
22500 28121 28125 28
22501 28126 28127 28
22502 28126 28128 28
22503 28126 28129 28
22504 28126 28130 28
22505 28131 28132 28
22506 28131 28133 28
22507 28131 28134 28
22508 28131 28135 28
22509 28136 28137 28
22510 28136 28138 28
22511 28136 28139 28
22512 28136 28140 28
22513 28141 28142 28
22514 28141 28143 28
22515 28141 28144 28
22516 28141 28145 28
22517 28146 28147 28
22518 28146 28148 28
22519 28146 28149 28
22520 28146 28150 28
22521 28151 28152 28
22522 28151 28153 28
22523 28151 28154 28
22524 28151 28155 28
22525 28156 28157 28
22526 28156 28158 28
22527 28156 28159 28
22528 28156 28160 28
22529 28161 28162 28
22530 28161 28163 28
22531 28161 28164 28
22532 28161 28165 28
22533 28166 28167 28
22534 28166 28168 28
22535 28166 28169 28
22536 28166 28170 28
22537 28171 28172 28
22538 28171 28173 28
22539 28171 28174 28
22540 28171 28175 28
22541 28176 28177 28
22542 28176 28178 28
22543 28176 28179 28
22544 28176 28180 28
22545 28181 28182 28
22546 28181 28183 28
22547 28181 28184 28
22548 28181 28185 28
22549 28186 28187 28
22550 28186 28188 28
22551 28186 28189 28
22552 28186 28190 28
22553 28191 28192 28
22554 28191 28193 28
22555 28191 28194 28
22556 28191 28195 28
22557 28196 28197 28
22558 28196 28198 28
22559 28196 28199 28
22560 28196 28200 28
22561 28201 28202 28
22562 28201 28203 28
22563 28201 28204 28
22564 28201 28205 28
22565 28206 28207 28
22566 28206 28208 28
22567 28206 28209 28
22568 28206 28210 28
22569 28211 28212 28
22570 28211 28213 28
22571 28211 28214 28
22572 28211 28215 28
22573 28216 28217 28
22574 28216 28218 28
22575 28216 28219 28
22576 28216 28220 28
22577 28221 28222 28
22578 28221 28223 28
22579 28221 28224 28
22580 28221 28225 28
22581 28226 28227 28
22582 28226 28228 28
22583 28226 28229 28
22584 28226 28230 28
22585 28231 28232 28
22586 28231 28233 28
22587 28231 28234 28
22588 28231 28235 28
22589 28236 28237 28
22590 28236 28238 28
22591 28236 28239 28
22592 28236 28240 28
22593 28241 28242 28
22594 28241 28243 28
22595 28241 28244 28
22596 28241 28245 28
22597 28246 28247 28
22598 28246 28248 28
22599 28246 28249 28
22600 28246 28250 28
22601 28251 28252 28
22602 28251 28253 28
22603 28251 28254 28
22604 28251 28255 28
22605 28256 28257 28
22606 28256 28258 28
22607 28256 28259 28
22608 28256 28260 28
22609 28261 28262 28
22610 28261 28263 28
22611 28261 28264 28
22612 28261 28265 28
22613 28266 28267 28
22614 28266 28268 28
22615 28266 28269 28
22616 28266 28270 28
22617 28271 28272 28
22618 28271 28273 28
22619 28271 28274 28
22620 28271 28275 28
22621 28276 28277 28
22622 28276 28278 28
22623 28276 28279 28
22624 28276 28280 28
22625 28281 28282 28
22626 28281 28283 28
22627 28281 28284 28
22628 28281 28285 28
22629 28286 28287 28
22630 28286 28288 28
22631 28286 28289 28
22632 28286 28290 28
22633 28291 28292 28
22634 28291 28293 28
22635 28291 28294 28
22636 28291 28295 28
22637 28296 28297 28
22638 28296 28298 28
22639 28296 28299 28
22640 28296 28300 28
22641 28301 28302 28
22642 28301 28303 28
22643 28301 28304 28
22644 28301 28305 28
22645 28306 28307 28
22646 28306 28308 28
22647 28306 28309 28
22648 28306 28310 28
22649 28311 28312 28
22650 28311 28313 28
22651 28311 28314 28
22652 28311 28315 28
22653 28316 28317 28
22654 28316 28318 28
22655 28316 28319 28
22656 28316 28320 28
22657 28321 28322 28
22658 28321 28323 28
22659 28321 28324 28
22660 28321 28325 28
22661 28326 28327 28
22662 28326 28328 28
22663 28326 28329 28
22664 28326 28330 28
22665 28331 28332 28
22666 28331 28333 28
22667 28331 28334 28
22668 28331 28335 28
22669 28336 28337 28
22670 28336 28338 28
22671 28336 28339 28
22672 28336 28340 28
22673 28341 28342 28
22674 28341 28343 28
22675 28341 28344 28
22676 28341 28345 28
22677 28346 28347 28
22678 28346 28348 28
22679 28346 28349 28
22680 28346 28350 28
22681 28351 28352 28
22682 28351 28353 28
22683 28351 28354 28
22684 28351 28355 28
22685 28356 28357 28
22686 28356 28358 28
22687 28356 28359 28
22688 28356 28360 28
22689 28361 28362 28
22690 28361 28363 28
22691 28361 28364 28
22692 28361 28365 28
22693 28366 28367 28
22694 28366 28368 28
22695 28366 28369 28
22696 28366 28370 28
22697 28371 28372 28
22698 28371 28373 28
22699 28371 28374 28
22700 28371 28375 28
22701 28376 28377 28
22702 28376 28378 28
22703 28376 28379 28
22704 28376 28380 28
22705 28381 28382 28
22706 28381 28383 28
22707 28381 28384 28
22708 28381 28385 28
22709 28386 28387 28
22710 28386 28388 28
22711 28386 28389 28
22712 28386 28390 28
22713 28391 28392 28
22714 28391 28393 28
22715 28391 28394 28
22716 28391 28395 28
22717 28396 28397 28
22718 28396 28398 28
22719 28396 28399 28
22720 28396 28400 28
22721 28401 28402 28
22722 28401 28403 28
22723 28401 28404 28
22724 28401 28405 28
22725 28406 28407 28
22726 28406 28408 28
22727 28406 28409 28
22728 28406 28410 28
22729 28411 28412 28
22730 28411 28413 28
22731 28411 28414 28
22732 28411 28415 28
22733 28416 28417 28
22734 28416 28418 28
22735 28416 28419 28
22736 28416 28420 28
22737 28421 28422 28
22738 28421 28423 28
22739 28421 28424 28
22740 28421 28425 28
22741 28426 28427 28
22742 28426 28428 28
22743 28426 28429 28
22744 28426 28430 28
22745 28431 28432 28
22746 28431 28433 28
22747 28431 28434 28
22748 28431 28435 28
22749 28436 28437 28
22750 28436 28438 28
22751 28436 28439 28
22752 28436 28440 28
22753 28441 28442 28
22754 28441 28443 28
22755 28441 28444 28
22756 28441 28445 28
22757 28446 28447 28
22758 28446 28448 28
22759 28446 28449 28
22760 28446 28450 28
22761 28451 28452 28
22762 28451 28453 28
22763 28451 28454 28
22764 28451 28455 28
22765 28456 28457 28
22766 28456 28458 28
22767 28456 28459 28
22768 28456 28460 28
22769 28461 28462 28
22770 28461 28463 28
22771 28461 28464 28
22772 28461 28465 28
22773 28466 28467 28
22774 28466 28468 28
22775 28466 28469 28
22776 28466 28470 28
22777 28471 28472 28
22778 28471 28473 28
22779 28471 28474 28
22780 28471 28475 28
22781 28476 28477 28
22782 28476 28478 28
22783 28476 28479 28
22784 28476 28480 28
22785 28481 28482 28
22786 28481 28483 28
22787 28481 28484 28
22788 28481 28485 28
22789 28486 28487 28
22790 28486 28488 28
22791 28486 28489 28
22792 28486 28490 28
22793 28491 28492 28
22794 28491 28493 28
22795 28491 28494 28
22796 28491 28495 28
22797 28496 28497 28
22798 28496 28498 28
22799 28496 28499 28
22800 28496 28500 28
22801 28501 28502 28
22802 28501 28503 28
22803 28501 28504 28
22804 28501 28505 28
22805 28506 28507 28
22806 28506 28508 28
22807 28506 28509 28
22808 28506 28510 28
22809 28511 28512 28
22810 28511 28513 28
22811 28511 28514 28
22812 28511 28515 28
22813 28516 28517 28
22814 28516 28518 28
22815 28516 28519 28
22816 28516 28520 28
22817 28521 28522 28
22818 28521 28523 28
22819 28521 28524 28
22820 28521 28525 28
22821 28526 28527 28
22822 28526 28528 28
22823 28526 28529 28
22824 28526 28530 28
22825 28531 28532 28
22826 28531 28533 28
22827 28531 28534 28
22828 28531 28535 28
22829 28536 28537 28
22830 28536 28538 28
22831 28536 28539 28
22832 28536 28540 28
22833 28541 28542 28
22834 28541 28543 28
22835 28541 28544 28
22836 28541 28545 28
22837 28546 28547 28
22838 28546 28548 28
22839 28546 28549 28
22840 28546 28550 28
22841 28551 28552 28
22842 28551 28553 28
22843 28551 28554 28
22844 28551 28555 28
22845 28556 28557 28
22846 28556 28558 28
22847 28556 28559 28
22848 28556 28560 28
22849 28561 28562 28
22850 28561 28563 28
22851 28561 28564 28
22852 28561 28565 28
22853 28566 28567 28
22854 28566 28568 28
22855 28566 28569 28
22856 28566 28570 28
22857 28571 28572 28
22858 28571 28573 28
22859 28571 28574 28
22860 28571 28575 28
22861 28576 28577 28
22862 28576 28578 28
22863 28576 28579 28
22864 28576 28580 28
22865 28581 28582 28
22866 28581 28583 28
22867 28581 28584 28
22868 28581 28585 28
22869 28586 28587 28
22870 28586 28588 28
22871 28586 28589 28
22872 28586 28590 28
22873 28591 28592 28
22874 28591 28593 28
22875 28591 28594 28
22876 28591 28595 28
22877 28596 28597 28
22878 28596 28598 28
22879 28596 28599 28
22880 28596 28600 28
22881 28601 28602 28
22882 28601 28603 28
22883 28601 28604 28
22884 28601 28605 28
22885 28606 28607 28
22886 28606 28608 28
22887 28606 28609 28
22888 28606 28610 28
22889 28611 28612 28
22890 28611 28613 28
22891 28611 28614 28
22892 28611 28615 28
22893 28616 28617 28
22894 28616 28618 28
22895 28616 28619 28
22896 28616 28620 28
22897 28621 28622 28
22898 28621 28623 28
22899 28621 28624 28
22900 28621 28625 28
22901 28626 28627 28
22902 28626 28628 28
22903 28626 28629 28
22904 28626 28630 28
22905 28631 28632 28
22906 28631 28633 28
22907 28631 28634 28
22908 28631 28635 28
22909 28636 28637 28
22910 28636 28638 28
22911 28636 28639 28
22912 28636 28640 28
22913 28641 28642 28
22914 28641 28643 28
22915 28641 28644 28
22916 28641 28645 28
22917 28646 28647 28
22918 28646 28648 28
22919 28646 28649 28
22920 28646 28650 28
22921 28651 28652 28
22922 28651 28653 28
22923 28651 28654 28
22924 28651 28655 28
22925 28656 28657 28
22926 28656 28658 28
22927 28656 28659 28
22928 28656 28660 28
22929 28661 28662 28
22930 28661 28663 28
22931 28661 28664 28
22932 28661 28665 28
22933 28666 28667 28
22934 28666 28668 28
22935 28666 28669 28
22936 28666 28670 28
22937 28671 28672 28
22938 28671 28673 28
22939 28671 28674 28
22940 28671 28675 28
22941 28676 28677 28
22942 28676 28678 28
22943 28676 28679 28
22944 28676 28680 28
22945 28681 28682 28
22946 28681 28683 28
22947 28681 28684 28
22948 28681 28685 28
22949 28686 28687 28
22950 28686 28688 28
22951 28686 28689 28
22952 28686 28690 28
22953 28691 28692 28
22954 28691 28693 28
22955 28691 28694 28
22956 28691 28695 28
22957 28696 28697 28
22958 28696 28698 28
22959 28696 28699 28
22960 28696 28700 28
22961 28701 28702 28
22962 28701 28703 28
22963 28701 28704 28
22964 28701 28705 28
22965 28706 28707 28
22966 28706 28708 28
22967 28706 28709 28
22968 28706 28710 28
22969 28711 28712 28
22970 28711 28713 28
22971 28711 28714 28
22972 28711 28715 28
22973 28716 28717 28
22974 28716 28718 28
22975 28716 28719 28
22976 28716 28720 28
22977 28721 28722 28
22978 28721 28723 28
22979 28721 28724 28
22980 28721 28725 28
22981 28726 28727 28
22982 28726 28728 28
22983 28726 28729 28
22984 28726 28730 28
22985 28731 28732 28
22986 28731 28733 28
22987 28731 28734 28
22988 28731 28735 28
22989 28736 28737 28
22990 28736 28738 28
22991 28736 28739 28
22992 28736 28740 28
22993 28741 28742 28
22994 28741 28743 28
22995 28741 28744 28
22996 28741 28745 28
22997 28746 28747 28
22998 28746 28748 28
22999 28746 28749 28
23000 28746 28750 28
23001 28751 28752 28
23002 28751 28753 28
23003 28751 28754 28
23004 28751 28755 28
23005 28756 28757 28
23006 28756 28758 28
23007 28756 28759 28
23008 28756 28760 28
23009 28761 28762 28
23010 28761 28763 28
23011 28761 28764 28
23012 28761 28765 28
23013 28766 28767 28
23014 28766 28768 28
23015 28766 28769 28
23016 28766 28770 28
23017 28771 28772 28
23018 28771 28773 28
23019 28771 28774 28
23020 28771 28775 28
23021 28776 28777 28
23022 28776 28778 28
23023 28776 28779 28
23024 28776 28780 28
23025 28781 28782 28
23026 28781 28783 28
23027 28781 28784 28
23028 28781 28785 28
23029 28786 28787 28
23030 28786 28788 28
23031 28786 28789 28
23032 28786 28790 28
23033 28791 28792 28
23034 28791 28793 28
23035 28791 28794 28
23036 28791 28795 28
23037 28796 28797 28
23038 28796 28798 28
23039 28796 28799 28
23040 28796 28800 28
23041 28801 28802 28
23042 28801 28803 28
23043 28801 28804 28
23044 28801 28805 28
23045 28806 28807 28
23046 28806 28808 28
23047 28806 28809 28
23048 28806 28810 28
23049 28811 28812 28
23050 28811 28813 28
23051 28811 28814 28
23052 28811 28815 28
23053 28816 28817 28
23054 28816 28818 28
23055 28816 28819 28
23056 28816 28820 28
23057 28821 28822 28
23058 28821 28823 28
23059 28821 28824 28
23060 28821 28825 28
23061 28826 28827 28
23062 28826 28828 28
23063 28826 28829 28
23064 28826 28830 28
23065 28831 28832 28
23066 28831 28833 28
23067 28831 28834 28
23068 28831 28835 28
23069 28836 28837 28
23070 28836 28838 28
23071 28836 28839 28
23072 28836 28840 28
23073 28841 28842 28
23074 28841 28843 28
23075 28841 28844 28
23076 28841 28845 28
23077 28846 28847 28
23078 28846 28848 28
23079 28846 28849 28
23080 28846 28850 28
23081 28851 28852 28
23082 28851 28853 28
23083 28851 28854 28
23084 28851 28855 28
23085 28856 28857 28
23086 28856 28858 28
23087 28856 28859 28
23088 28856 28860 28
23089 28861 28862 28
23090 28861 28863 28
23091 28861 28864 28
23092 28861 28865 28
23093 28866 28867 28
23094 28866 28868 28
23095 28866 28869 28
23096 28866 28870 28
23097 28871 28872 28
23098 28871 28873 28
23099 28871 28874 28
23100 28871 28875 28
23101 28876 28877 28
23102 28876 28878 28
23103 28876 28879 28
23104 28876 28880 28
23105 28881 28882 28
23106 28881 28883 28
23107 28881 28884 28
23108 28881 28885 28
23109 28886 28887 28
23110 28886 28888 28
23111 28886 28889 28
23112 28886 28890 28
23113 28891 28892 28
23114 28891 28893 28
23115 28891 28894 28
23116 28891 28895 28
23117 28896 28897 28
23118 28896 28898 28
23119 28896 28899 28
23120 28896 28900 28
23121 28901 28902 28
23122 28901 28903 28
23123 28901 28904 28
23124 28901 28905 28
23125 28906 28907 28
23126 28906 28908 28
23127 28906 28909 28
23128 28906 28910 28
23129 28911 28912 28
23130 28911 28913 28
23131 28911 28914 28
23132 28911 28915 28
23133 28916 28917 28
23134 28916 28918 28
23135 28916 28919 28
23136 28916 28920 28
23137 28921 28922 28
23138 28921 28923 28
23139 28921 28924 28
23140 28921 28925 28
23141 28926 28927 28
23142 28926 28928 28
23143 28926 28929 28
23144 28926 28930 28
23145 28931 28932 28
23146 28931 28933 28
23147 28931 28934 28
23148 28931 28935 28
23149 28936 28937 28
23150 28936 28938 28
23151 28936 28939 28
23152 28936 28940 28
23153 28941 28942 28
23154 28941 28943 28
23155 28941 28944 28
23156 28941 28945 28
23157 28946 28947 28
23158 28946 28948 28
23159 28946 28949 28
23160 28946 28950 28
23161 28951 28952 28
23162 28951 28953 28
23163 28951 28954 28
23164 28951 28955 28
23165 28956 28957 28
23166 28956 28958 28
23167 28956 28959 28
23168 28956 28960 28
23169 28961 28962 28
23170 28961 28963 28
23171 28961 28964 28
23172 28961 28965 28
23173 28966 28967 28
23174 28966 28968 28
23175 28966 28969 28
23176 28966 28970 28
23177 28971 28972 28
23178 28971 28973 28
23179 28971 28974 28
23180 28971 28975 28
23181 28976 28977 28
23182 28976 28978 28
23183 28976 28979 28
23184 28976 28980 28
23185 28981 28982 28
23186 28981 28983 28
23187 28981 28984 28
23188 28981 28985 28
23189 28986 28987 28
23190 28986 28988 28
23191 28986 28989 28
23192 28986 28990 28
23193 28991 28992 28
23194 28991 28993 28
23195 28991 28994 28
23196 28991 28995 28
23197 28996 28997 28
23198 28996 28998 28
23199 28996 28999 28
23200 28996 29000 28
23201 29001 29002 28
23202 29001 29003 28
23203 29001 29004 28
23204 29001 29005 28
23205 29006 29007 28
23206 29006 29008 28
23207 29006 29009 28
23208 29006 29010 28
23209 29011 29012 28
23210 29011 29013 28
23211 29011 29014 28
23212 29011 29015 28
23213 29016 29017 28
23214 29016 29018 28
23215 29016 29019 28
23216 29016 29020 28
23217 29021 29022 28
23218 29021 29023 28
23219 29021 29024 28
23220 29021 29025 28
23221 29026 29027 28
23222 29026 29028 28
23223 29026 29029 28
23224 29026 29030 28
23225 29031 29032 28
23226 29031 29033 28
23227 29031 29034 28
23228 29031 29035 28
23229 29036 29037 28
23230 29036 29038 28
23231 29036 29039 28
23232 29036 29040 28
23233 29041 29042 28
23234 29041 29043 28
23235 29041 29044 28
23236 29041 29045 28
23237 29046 29047 28
23238 29046 29048 28
23239 29046 29049 28
23240 29046 29050 28
23241 29051 29052 28
23242 29051 29053 28
23243 29051 29054 28
23244 29051 29055 28
23245 29056 29057 28
23246 29056 29058 28
23247 29056 29059 28
23248 29056 29060 28
23249 29061 29062 28
23250 29061 29063 28
23251 29061 29064 28
23252 29061 29065 28
23253 29066 29067 28
23254 29066 29068 28
23255 29066 29069 28
23256 29066 29070 28
23257 29071 29072 28
23258 29071 29073 28
23259 29071 29074 28
23260 29071 29075 28
23261 29076 29077 28
23262 29076 29078 28
23263 29076 29079 28
23264 29076 29080 28
23265 29081 29082 28
23266 29081 29083 28
23267 29081 29084 28
23268 29081 29085 28
23269 29086 29087 28
23270 29086 29088 28
23271 29086 29089 28
23272 29086 29090 28
23273 29091 29092 28
23274 29091 29093 28
23275 29091 29094 28
23276 29091 29095 28
23277 29096 29097 28
23278 29096 29098 28
23279 29096 29099 28
23280 29096 29100 28
23281 29101 29102 28
23282 29101 29103 28
23283 29101 29104 28
23284 29101 29105 28
23285 29106 29107 28
23286 29106 29108 28
23287 29106 29109 28
23288 29106 29110 28
23289 29111 29112 28
23290 29111 29113 28
23291 29111 29114 28
23292 29111 29115 28
23293 29116 29117 28
23294 29116 29118 28
23295 29116 29119 28
23296 29116 29120 28
23297 29121 29122 28
23298 29121 29123 28
23299 29121 29124 28
23300 29121 29125 28
23301 29126 29127 28
23302 29126 29128 28
23303 29126 29129 28
23304 29126 29130 28
23305 29131 29132 28
23306 29131 29133 28
23307 29131 29134 28
23308 29131 29135 28
23309 29136 29137 28
23310 29136 29138 28
23311 29136 29139 28
23312 29136 29140 28
23313 29141 29142 28
23314 29141 29143 28
23315 29141 29144 28
23316 29141 29145 28
23317 29146 29147 28
23318 29146 29148 28
23319 29146 29149 28
23320 29146 29150 28
23321 29151 29152 28
23322 29151 29153 28
23323 29151 29154 28
23324 29151 29155 28
23325 29156 29157 28
23326 29156 29158 28
23327 29156 29159 28
23328 29156 29160 28
23329 29161 29162 28
23330 29161 29163 28
23331 29161 29164 28
23332 29161 29165 28
23333 29166 29167 28
23334 29166 29168 28
23335 29166 29169 28
23336 29166 29170 28
23337 29171 29172 28
23338 29171 29173 28
23339 29171 29174 28
23340 29171 29175 28
23341 29176 29177 28
23342 29176 29178 28
23343 29176 29179 28
23344 29176 29180 28
23345 29181 29182 28
23346 29181 29183 28
23347 29181 29184 28
23348 29181 29185 28
23349 29186 29187 28
23350 29186 29188 28
23351 29186 29189 28
23352 29186 29190 28
23353 29191 29192 28
23354 29191 29193 28
23355 29191 29194 28
23356 29191 29195 28
23357 29196 29197 28
23358 29196 29198 28
23359 29196 29199 28
23360 29196 29200 28
23361 29201 29202 28
23362 29201 29203 28
23363 29201 29204 28
23364 29201 29205 28
23365 29206 29207 28
23366 29206 29208 28
23367 29206 29209 28
23368 29206 29210 28
23369 29211 29212 28
23370 29211 29213 28
23371 29211 29214 28
23372 29211 29215 28
23373 29216 29217 28
23374 29216 29218 28
23375 29216 29219 28
23376 29216 29220 28
23377 29221 29222 28
23378 29221 29223 28
23379 29221 29224 28
23380 29221 29225 28
23381 29226 29227 28
23382 29226 29228 28
23383 29226 29229 28
23384 29226 29230 28
23385 29231 29232 28
23386 29231 29233 28
23387 29231 29234 28
23388 29231 29235 28
23389 29236 29237 28
23390 29236 29238 28
23391 29236 29239 28
23392 29236 29240 28
23393 29241 29242 28
23394 29241 29243 28
23395 29241 29244 28
23396 29241 29245 28
23397 29246 29247 28
23398 29246 29248 28
23399 29246 29249 28
23400 29246 29250 28
23401 29251 29252 28
23402 29251 29253 28
23403 29251 29254 28
23404 29251 29255 28
23405 29256 29257 28
23406 29256 29258 28
23407 29256 29259 28
23408 29256 29260 28
23409 29261 29262 28
23410 29261 29263 28
23411 29261 29264 28
23412 29261 29265 28
23413 29266 29267 28
23414 29266 29268 28
23415 29266 29269 28
23416 29266 29270 28
23417 29271 29272 28
23418 29271 29273 28
23419 29271 29274 28
23420 29271 29275 28
23421 29276 29277 28
23422 29276 29278 28
23423 29276 29279 28
23424 29276 29280 28
23425 29281 29282 28
23426 29281 29283 28
23427 29281 29284 28
23428 29281 29285 28
23429 29286 29287 28
23430 29286 29288 28
23431 29286 29289 28
23432 29286 29290 28
23433 29291 29292 28
23434 29291 29293 28
23435 29291 29294 28
23436 29291 29295 28
23437 29296 29297 28
23438 29296 29298 28
23439 29296 29299 28
23440 29296 29300 28
23441 29301 29302 28
23442 29301 29303 28
23443 29301 29304 28
23444 29301 29305 28
23445 29306 29307 28
23446 29306 29308 28
23447 29306 29309 28
23448 29306 29310 28
23449 29311 29312 28
23450 29311 29313 28
23451 29311 29314 28
23452 29311 29315 28
23453 29316 29317 28
23454 29316 29318 28
23455 29316 29319 28
23456 29316 29320 28
23457 29321 29322 28
23458 29321 29323 28
23459 29321 29324 28
23460 29321 29325 28
23461 29326 29327 28
23462 29326 29328 28
23463 29326 29329 28
23464 29326 29330 28
23465 29331 29332 28
23466 29331 29333 28
23467 29331 29334 28
23468 29331 29335 28
23469 29336 29337 28
23470 29336 29338 28
23471 29336 29339 28
23472 29336 29340 28
23473 29341 29342 28
23474 29341 29343 28
23475 29341 29344 28
23476 29341 29345 28
23477 29346 29347 28
23478 29346 29348 28
23479 29346 29349 28
23480 29346 29350 28
23481 29351 29352 28
23482 29351 29353 28
23483 29351 29354 28
23484 29351 29355 28
23485 29356 29357 28
23486 29356 29358 28
23487 29356 29359 28
23488 29356 29360 28
23489 29361 29362 28
23490 29361 29363 28
23491 29361 29364 28
23492 29361 29365 28
23493 29366 29367 28
23494 29366 29368 28
23495 29366 29369 28
23496 29366 29370 28
23497 29371 29372 28
23498 29371 29373 28
23499 29371 29374 28
23500 29371 29375 28
23501 29376 29377 28
23502 29376 29378 28
23503 29376 29379 28
23504 29376 29380 28
23505 29381 29382 28
23506 29381 29383 28
23507 29381 29384 28
23508 29381 29385 28
23509 29386 29387 28
23510 29386 29388 28
23511 29386 29389 28
23512 29386 29390 28
23513 29391 29392 28
23514 29391 29393 28
23515 29391 29394 28
23516 29391 29395 28
23517 29396 29397 28
23518 29396 29398 28
23519 29396 29399 28
23520 29396 29400 28
23521 29401 29402 28
23522 29401 29403 28
23523 29401 29404 28
23524 29401 29405 28
23525 29406 29407 28
23526 29406 29408 28
23527 29406 29409 28
23528 29406 29410 28
23529 29411 29412 28
23530 29411 29413 28
23531 29411 29414 28
23532 29411 29415 28
23533 29416 29417 28
23534 29416 29418 28
23535 29416 29419 28
23536 29416 29420 28
23537 29421 29422 28
23538 29421 29423 28
23539 29421 29424 28
23540 29421 29425 28
23541 29426 29427 28
23542 29426 29428 28
23543 29426 29429 28
23544 29426 29430 28
23545 29431 29432 28
23546 29431 29433 28
23547 29431 29434 28
23548 29431 29435 28
23549 29436 29437 28
23550 29436 29438 28
23551 29436 29439 28
23552 29436 29440 28
23553 29441 29442 28
23554 29441 29443 28
23555 29441 29444 28
23556 29441 29445 28
23557 29446 29447 28
23558 29446 29448 28
23559 29446 29449 28
23560 29446 29450 28
23561 29451 29452 28
23562 29451 29453 28
23563 29451 29454 28
23564 29451 29455 28
23565 29456 29457 28
23566 29456 29458 28
23567 29456 29459 28
23568 29456 29460 28
23569 29461 29462 28
23570 29461 29463 28
23571 29461 29464 28
23572 29461 29465 28
23573 29466 29467 28
23574 29466 29468 28
23575 29466 29469 28
23576 29466 29470 28
23577 29471 29472 28
23578 29471 29473 28
23579 29471 29474 28
23580 29471 29475 28
23581 29476 29477 28
23582 29476 29478 28
23583 29476 29479 28
23584 29476 29480 28
23585 29481 29482 28
23586 29481 29483 28
23587 29481 29484 28
23588 29481 29485 28
23589 29486 29487 28
23590 29486 29488 28
23591 29486 29489 28
23592 29486 29490 28
23593 29491 29492 28
23594 29491 29493 28
23595 29491 29494 28
23596 29491 29495 28
23597 29496 29497 28
23598 29496 29498 28
23599 29496 29499 28
23600 29496 29500 28
23601 29501 29502 28
23602 29501 29503 28
23603 29501 29504 28
23604 29501 29505 28
23605 29506 29507 28
23606 29506 29508 28
23607 29506 29509 28
23608 29506 29510 28
23609 29511 29512 28
23610 29511 29513 28
23611 29511 29514 28
23612 29511 29515 28
23613 29516 29517 28
23614 29516 29518 28
23615 29516 29519 28
23616 29516 29520 28
23617 29521 29522 28
23618 29521 29523 28
23619 29521 29524 28
23620 29521 29525 28
23621 29526 29527 28
23622 29526 29528 28
23623 29526 29529 28
23624 29526 29530 28
23625 29531 29532 28
23626 29531 29533 28
23627 29531 29534 28
23628 29531 29535 28
23629 29536 29537 28
23630 29536 29538 28
23631 29536 29539 28
23632 29536 29540 28
23633 29541 29542 28
23634 29541 29543 28
23635 29541 29544 28
23636 29541 29545 28
23637 29546 29547 28
23638 29546 29548 28
23639 29546 29549 28
23640 29546 29550 28
23641 29551 29552 28
23642 29551 29553 28
23643 29551 29554 28
23644 29551 29555 28
23645 29556 29557 28
23646 29556 29558 28
23647 29556 29559 28
23648 29556 29560 28
23649 29561 29562 28
23650 29561 29563 28
23651 29561 29564 28
23652 29561 29565 28
23653 29566 29567 28
23654 29566 29568 28
23655 29566 29569 28
23656 29566 29570 28
23657 29571 29572 28
23658 29571 29573 28
23659 29571 29574 28
23660 29571 29575 28
23661 29576 29577 28
23662 29576 29578 28
23663 29576 29579 28
23664 29576 29580 28
23665 29581 29582 28
23666 29581 29583 28
23667 29581 29584 28
23668 29581 29585 28
23669 29586 29587 28
23670 29586 29588 28
23671 29586 29589 28
23672 29586 29590 28
23673 29591 29592 28
23674 29591 29593 28
23675 29591 29594 28
23676 29591 29595 28
23677 29596 29597 28
23678 29596 29598 28
23679 29596 29599 28
23680 29596 29600 28
23681 29601 29602 28
23682 29601 29603 28
23683 29601 29604 28
23684 29601 29605 28
23685 29606 29607 28
23686 29606 29608 28
23687 29606 29609 28
23688 29606 29610 28
23689 29611 29612 28
23690 29611 29613 28
23691 29611 29614 28
23692 29611 29615 28
23693 29616 29617 28
23694 29616 29618 28
23695 29616 29619 28
23696 29616 29620 28
23697 29621 29622 28
23698 29621 29623 28
23699 29621 29624 28
23700 29621 29625 28
23701 29626 29627 28
23702 29626 29628 28
23703 29626 29629 28
23704 29626 29630 28
23705 29631 29632 28
23706 29631 29633 28
23707 29631 29634 28
23708 29631 29635 28
23709 29636 29637 28
23710 29636 29638 28
23711 29636 29639 28
23712 29636 29640 28
23713 29641 29642 28
23714 29641 29643 28
23715 29641 29644 28
23716 29641 29645 28
23717 29646 29647 28
23718 29646 29648 28
23719 29646 29649 28
23720 29646 29650 28
23721 29651 29652 28
23722 29651 29653 28
23723 29651 29654 28
23724 29651 29655 28
23725 29656 29657 28
23726 29656 29658 28
23727 29656 29659 28
23728 29656 29660 28
23729 29661 29662 28
23730 29661 29663 28
23731 29661 29664 28
23732 29661 29665 28
23733 29666 29667 28
23734 29666 29668 28
23735 29666 29669 28
23736 29666 29670 28
23737 29671 29672 28
23738 29671 29673 28
23739 29671 29674 28
23740 29671 29675 28
23741 29676 29677 28
23742 29676 29678 28
23743 29676 29679 28
23744 29676 29680 28
23745 29681 29682 28
23746 29681 29683 28
23747 29681 29684 28
23748 29681 29685 28
23749 29686 29687 28
23750 29686 29688 28
23751 29686 29689 28
23752 29686 29690 28
23753 29691 29692 28
23754 29691 29693 28
23755 29691 29694 28
23756 29691 29695 28
23757 29696 29697 28
23758 29696 29698 28
23759 29696 29699 28
23760 29696 29700 28
23761 29701 29702 28
23762 29701 29703 28
23763 29701 29704 28
23764 29701 29705 28
23765 29706 29707 28
23766 29706 29708 28
23767 29706 29709 28
23768 29706 29710 28
23769 29711 29712 28
23770 29711 29713 28
23771 29711 29714 28
23772 29711 29715 28
23773 29716 29717 28
23774 29716 29718 28
23775 29716 29719 28
23776 29716 29720 28
23777 29721 29722 28
23778 29721 29723 28
23779 29721 29724 28
23780 29721 29725 28
23781 29726 29727 28
23782 29726 29728 28
23783 29726 29729 28
23784 29726 29730 28
23785 29731 29732 28
23786 29731 29733 28
23787 29731 29734 28
23788 29731 29735 28
23789 29736 29737 28
23790 29736 29738 28
23791 29736 29739 28
23792 29736 29740 28
23793 29741 29742 28
23794 29741 29743 28
23795 29741 29744 28
23796 29741 29745 28
23797 29746 29747 28
23798 29746 29748 28
23799 29746 29749 28
23800 29746 29750 28
23801 29751 29752 28
23802 29751 29753 28
23803 29751 29754 28
23804 29751 29755 28
23805 29756 29757 28
23806 29756 29758 28
23807 29756 29759 28
23808 29756 29760 28
23809 29761 29762 28
23810 29761 29763 28
23811 29761 29764 28
23812 29761 29765 28
23813 29766 29767 28
23814 29766 29768 28
23815 29766 29769 28
23816 29766 29770 28
23817 29771 29772 28
23818 29771 29773 28
23819 29771 29774 28
23820 29771 29775 28
23821 29776 29777 28
23822 29776 29778 28
23823 29776 29779 28
23824 29776 29780 28
23825 29781 29782 28
23826 29781 29783 28
23827 29781 29784 28
23828 29781 29785 28
23829 29786 29787 28
23830 29786 29788 28
23831 29786 29789 28
23832 29786 29790 28
23833 29791 29792 28
23834 29791 29793 28
23835 29791 29794 28
23836 29791 29795 28
23837 29796 29797 28
23838 29796 29798 28
23839 29796 29799 28
23840 29796 29800 28
23841 29801 29802 28
23842 29801 29803 28
23843 29801 29804 28
23844 29801 29805 28
23845 29806 29807 28
23846 29806 29808 28
23847 29806 29809 28
23848 29806 29810 28
23849 29811 29812 28
23850 29811 29813 28
23851 29811 29814 28
23852 29811 29815 28
23853 29816 29817 28
23854 29816 29818 28
23855 29816 29819 28
23856 29816 29820 28
23857 29821 29822 28
23858 29821 29823 28
23859 29821 29824 28
23860 29821 29825 28
23861 29826 29827 28
23862 29826 29828 28
23863 29826 29829 28
23864 29826 29830 28
23865 29831 29832 28
23866 29831 29833 28
23867 29831 29834 28
23868 29831 29835 28
23869 29836 29837 28
23870 29836 29838 28
23871 29836 29839 28
23872 29836 29840 28
23873 29841 29842 28
23874 29841 29843 28
23875 29841 29844 28
23876 29841 29845 28
23877 29846 29847 28
23878 29846 29848 28
23879 29846 29849 28
23880 29846 29850 28
23881 29851 29852 28
23882 29851 29853 28
23883 29851 29854 28
23884 29851 29855 28
23885 29856 29857 28
23886 29856 29858 28
23887 29856 29859 28
23888 29856 29860 28
23889 29861 29862 28
23890 29861 29863 28
23891 29861 29864 28
23892 29861 29865 28
23893 29866 29867 28
23894 29866 29868 28
23895 29866 29869 28
23896 29866 29870 28
23897 29871 29872 28
23898 29871 29873 28
23899 29871 29874 28
23900 29871 29875 28
23901 29876 29877 28
23902 29876 29878 28
23903 29876 29879 28
23904 29876 29880 28
23905 29881 29882 28
23906 29881 29883 28
23907 29881 29884 28
23908 29881 29885 28
23909 29886 29887 28
23910 29886 29888 28
23911 29886 29889 28
23912 29886 29890 28
23913 29891 29892 28
23914 29891 29893 28
23915 29891 29894 28
23916 29891 29895 28
23917 29896 29897 28
23918 29896 29898 28
23919 29896 29899 28
23920 29896 29900 28
23921 29901 29902 28
23922 29901 29903 28
23923 29901 29904 28
23924 29901 29905 28
23925 29906 29907 28
23926 29906 29908 28
23927 29906 29909 28
23928 29906 29910 28
23929 29911 29912 28
23930 29911 29913 28
23931 29911 29914 28
23932 29911 29915 28
23933 29916 29917 28
23934 29916 29918 28
23935 29916 29919 28
23936 29916 29920 28
23937 29921 29922 28
23938 29921 29923 28
23939 29921 29924 28
23940 29921 29925 28
23941 29926 29927 28
23942 29926 29928 28
23943 29926 29929 28
23944 29926 29930 28
23945 29931 29932 28
23946 29931 29933 28
23947 29931 29934 28
23948 29931 29935 28
23949 29936 29937 28
23950 29936 29938 28
23951 29936 29939 28
23952 29936 29940 28
23953 29941 29942 28
23954 29941 29943 28
23955 29941 29944 28
23956 29941 29945 28
23957 29946 29947 28
23958 29946 29948 28
23959 29946 29949 28
23960 29946 29950 28
23961 29951 29952 28
23962 29951 29953 28
23963 29951 29954 28
23964 29951 29955 28
23965 29956 29957 28
23966 29956 29958 28
23967 29956 29959 28
23968 29956 29960 28
23969 29961 29962 28
23970 29961 29963 28
23971 29961 29964 28
23972 29961 29965 28
23973 29966 29967 28
23974 29966 29968 28
23975 29966 29969 28
23976 29966 29970 28
23977 29971 29972 28
23978 29971 29973 28
23979 29971 29974 28
23980 29971 29975 28
23981 29976 29977 28
23982 29976 29978 28
23983 29976 29979 28
23984 29976 29980 28
23985 29981 29982 28
23986 29981 29983 28
23987 29981 29984 28
23988 29981 29985 28
23989 29986 29987 28
23990 29986 29988 28
23991 29986 29989 28
23992 29986 29990 28
23993 29991 29992 28
23994 29991 29993 28
23995 29991 29994 28
23996 29991 29995 28
23997 29996 29997 28
23998 29996 29998 28
23999 29996 29999 28
24000 29996 30000 28
24001 30001 30002 28
24002 30001 30003 28
24003 30001 30004 28
24004 30001 30005 28
24005 30006 30007 28
24006 30006 30008 28
24007 30006 30009 28
24008 30006 30010 28
24009 30011 30012 28
24010 30011 30013 28
24011 30011 30014 28
24012 30011 30015 28
24013 30016 30017 28
24014 30016 30018 28
24015 30016 30019 28
24016 30016 30020 28
24017 30021 30022 28
24018 30021 30023 28
24019 30021 30024 28
24020 30021 30025 28
24021 30026 30027 28
24022 30026 30028 28
24023 30026 30029 28
24024 30026 30030 28
24025 30031 30032 28
24026 30031 30033 28
24027 30031 30034 28
24028 30031 30035 28
24029 30036 30037 28
24030 30036 30038 28
24031 30036 30039 28
24032 30036 30040 28
24033 30041 30042 28
24034 30041 30043 28
24035 30041 30044 28
24036 30041 30045 28
24037 30046 30047 28
24038 30046 30048 28
24039 30046 30049 28
24040 30046 30050 28
24041 30051 30052 28
24042 30051 30053 28
24043 30051 30054 28
24044 30051 30055 28
24045 30056 30057 28
24046 30056 30058 28
24047 30056 30059 28
24048 30056 30060 28
24049 30061 30062 28
24050 30061 30063 28
24051 30061 30064 28
24052 30061 30065 28
24053 30066 30067 28
24054 30066 30068 28
24055 30066 30069 28
24056 30066 30070 28
24057 30071 30072 28
24058 30071 30073 28
24059 30071 30074 28
24060 30071 30075 28
24061 30076 30077 28
24062 30076 30078 28
24063 30076 30079 28
24064 30076 30080 28
24065 30081 30082 28
24066 30081 30083 28
24067 30081 30084 28
24068 30081 30085 28
24069 30086 30087 28
24070 30086 30088 28
24071 30086 30089 28
24072 30086 30090 28
24073 30091 30092 28
24074 30091 30093 28
24075 30091 30094 28
24076 30091 30095 28
24077 30096 30097 28
24078 30096 30098 28
24079 30096 30099 28
24080 30096 30100 28
24081 30101 30102 28
24082 30101 30103 28
24083 30101 30104 28
24084 30101 30105 28
24085 30106 30107 28
24086 30106 30108 28
24087 30106 30109 28
24088 30106 30110 28
24089 30111 30112 28
24090 30111 30113 28
24091 30111 30114 28
24092 30111 30115 28
24093 30116 30117 28
24094 30116 30118 28
24095 30116 30119 28
24096 30116 30120 28
24097 30121 30122 28
24098 30121 30123 28
24099 30121 30124 28
24100 30121 30125 28
24101 30126 30127 28
24102 30126 30128 28
24103 30126 30129 28
24104 30126 30130 28
24105 30131 30132 28
24106 30131 30133 28
24107 30131 30134 28
24108 30131 30135 28
24109 30136 30137 28
24110 30136 30138 28
24111 30136 30139 28
24112 30136 30140 28
24113 30141 30142 28
24114 30141 30143 28
24115 30141 30144 28
24116 30141 30145 28
24117 30146 30147 28
24118 30146 30148 28
24119 30146 30149 28
24120 30146 30150 28
24121 30151 30152 28
24122 30151 30153 28
24123 30151 30154 28
24124 30151 30155 28
24125 30156 30157 28
24126 30156 30158 28
24127 30156 30159 28
24128 30156 30160 28
24129 30161 30162 28
24130 30161 30163 28
24131 30161 30164 28
24132 30161 30165 28
24133 30166 30167 28
24134 30166 30168 28
24135 30166 30169 28
24136 30166 30170 28
24137 30171 30172 28
24138 30171 30173 28
24139 30171 30174 28
24140 30171 30175 28
24141 30176 30177 28
24142 30176 30178 28
24143 30176 30179 28
24144 30176 30180 28
24145 30181 30182 28
24146 30181 30183 28
24147 30181 30184 28
24148 30181 30185 28
24149 30186 30187 28
24150 30186 30188 28
24151 30186 30189 28
24152 30186 30190 28
24153 30191 30192 28
24154 30191 30193 28
24155 30191 30194 28
24156 30191 30195 28
24157 30196 30197 28
24158 30196 30198 28
24159 30196 30199 28
24160 30196 30200 28
24161 30201 30202 28
24162 30201 30203 28
24163 30201 30204 28
24164 30201 30205 28
24165 30206 30207 28
24166 30206 30208 28
24167 30206 30209 28
24168 30206 30210 28
24169 30211 30212 28
24170 30211 30213 28
24171 30211 30214 28
24172 30211 30215 28
24173 30216 30217 28
24174 30216 30218 28
24175 30216 30219 28
24176 30216 30220 28
24177 30221 30222 28
24178 30221 30223 28
24179 30221 30224 28
24180 30221 30225 28
24181 30226 30227 28
24182 30226 30228 28
24183 30226 30229 28
24184 30226 30230 28
24185 30231 30232 28
24186 30231 30233 28
24187 30231 30234 28
24188 30231 30235 28
24189 30236 30237 28
24190 30236 30238 28
24191 30236 30239 28
24192 30236 30240 28
24193 30241 30242 28
24194 30241 30243 28
24195 30241 30244 28
24196 30241 30245 28
24197 30246 30247 28
24198 30246 30248 28
24199 30246 30249 28
24200 30246 30250 28
24201 30251 30252 28
24202 30251 30253 28
24203 30251 30254 28
24204 30251 30255 28
24205 30256 30257 28
24206 30256 30258 28
24207 30256 30259 28
24208 30256 30260 28
24209 30261 30262 28
24210 30261 30263 28
24211 30261 30264 28
24212 30261 30265 28
24213 30266 30267 28
24214 30266 30268 28
24215 30266 30269 28
24216 30266 30270 28
24217 30271 30272 28
24218 30271 30273 28
24219 30271 30274 28
24220 30271 30275 28
24221 30276 30277 28
24222 30276 30278 28
24223 30276 30279 28
24224 30276 30280 28
24225 30281 30282 28
24226 30281 30283 28
24227 30281 30284 28
24228 30281 30285 28
24229 30286 30287 28
24230 30286 30288 28
24231 30286 30289 28
24232 30286 30290 28
24233 30291 30292 28
24234 30291 30293 28
24235 30291 30294 28
24236 30291 30295 28
24237 30296 30297 28
24238 30296 30298 28
24239 30296 30299 28
24240 30296 30300 28
24241 30301 30302 28
24242 30301 30303 28
24243 30301 30304 28
24244 30301 30305 28
24245 30306 30307 28
24246 30306 30308 28
24247 30306 30309 28
24248 30306 30310 28
24249 30311 30312 28
24250 30311 30313 28
24251 30311 30314 28
24252 30311 30315 28
24253 30316 30317 28
24254 30316 30318 28
24255 30316 30319 28
24256 30316 30320 28
24257 30321 30322 28
24258 30321 30323 28
24259 30321 30324 28
24260 30321 30325 28
24261 30326 30327 28
24262 30326 30328 28
24263 30326 30329 28
24264 30326 30330 28
24265 30331 30332 28
24266 30331 30333 28
24267 30331 30334 28
24268 30331 30335 28
24269 30336 30337 28
24270 30336 30338 28
24271 30336 30339 28
24272 30336 30340 28
24273 30341 30342 28
24274 30341 30343 28
24275 30341 30344 28
24276 30341 30345 28
24277 30346 30347 28
24278 30346 30348 28
24279 30346 30349 28
24280 30346 30350 28
24281 30351 30352 28
24282 30351 30353 28
24283 30351 30354 28
24284 30351 30355 28
24285 30356 30357 28
24286 30356 30358 28
24287 30356 30359 28
24288 30356 30360 28
24289 30361 30362 28
24290 30361 30363 28
24291 30361 30364 28
24292 30361 30365 28
24293 30366 30367 28
24294 30366 30368 28
24295 30366 30369 28
24296 30366 30370 28
24297 30371 30372 28
24298 30371 30373 28
24299 30371 30374 28
24300 30371 30375 28
24301 30376 30377 28
24302 30376 30378 28
24303 30376 30379 28
24304 30376 30380 28
24305 30381 30382 28
24306 30381 30383 28
24307 30381 30384 28
24308 30381 30385 28
24309 30386 30387 28
24310 30386 30388 28
24311 30386 30389 28
24312 30386 30390 28
24313 30391 30392 28
24314 30391 30393 28
24315 30391 30394 28
24316 30391 30395 28
24317 30396 30397 28
24318 30396 30398 28
24319 30396 30399 28
24320 30396 30400 28
24321 30401 30402 28
24322 30401 30403 28
24323 30401 30404 28
24324 30401 30405 28
24325 30406 30407 28
24326 30406 30408 28
24327 30406 30409 28
24328 30406 30410 28
24329 30411 30412 28
24330 30411 30413 28
24331 30411 30414 28
24332 30411 30415 28
24333 30416 30417 28
24334 30416 30418 28
24335 30416 30419 28
24336 30416 30420 28
24337 30421 30422 28
24338 30421 30423 28
24339 30421 30424 28
24340 30421 30425 28
24341 30426 30427 28
24342 30426 30428 28
24343 30426 30429 28
24344 30426 30430 28
24345 30431 30432 28
24346 30431 30433 28
24347 30431 30434 28
24348 30431 30435 28
24349 30436 30437 28
24350 30436 30438 28
24351 30436 30439 28
24352 30436 30440 28
24353 30441 30442 28
24354 30441 30443 28
24355 30441 30444 28
24356 30441 30445 28
24357 30446 30447 28
24358 30446 30448 28
24359 30446 30449 28
24360 30446 30450 28
24361 30451 30452 28
24362 30451 30453 28
24363 30451 30454 28
24364 30451 30455 28
24365 30456 30457 28
24366 30456 30458 28
24367 30456 30459 28
24368 30456 30460 28
24369 30461 30462 28
24370 30461 30463 28
24371 30461 30464 28
24372 30461 30465 28
24373 30466 30467 28
24374 30466 30468 28
24375 30466 30469 28
24376 30466 30470 28
24377 30471 30472 28
24378 30471 30473 28
24379 30471 30474 28
24380 30471 30475 28
24381 30476 30477 28
24382 30476 30478 28
24383 30476 30479 28
24384 30476 30480 28
24385 30481 30482 28
24386 30481 30483 28
24387 30481 30484 28
24388 30481 30485 28
24389 30486 30487 28
24390 30486 30488 28
24391 30486 30489 28
24392 30486 30490 28
24393 30491 30492 28
24394 30491 30493 28
24395 30491 30494 28
24396 30491 30495 28
24397 30496 30497 28
24398 30496 30498 28
24399 30496 30499 28
24400 30496 30500 28
24401 30501 30502 28
24402 30501 30503 28
24403 30501 30504 28
24404 30501 30505 28
24405 30506 30507 28
24406 30506 30508 28
24407 30506 30509 28
24408 30506 30510 28
24409 30511 30512 28
24410 30511 30513 28
24411 30511 30514 28
24412 30511 30515 28
24413 30516 30517 28
24414 30516 30518 28
24415 30516 30519 28
24416 30516 30520 28
24417 30521 30522 28
24418 30521 30523 28
24419 30521 30524 28
24420 30521 30525 28
24421 30526 30527 28
24422 30526 30528 28
24423 30526 30529 28
24424 30526 30530 28
24425 30531 30532 28
24426 30531 30533 28
24427 30531 30534 28
24428 30531 30535 28
24429 30536 30537 28
24430 30536 30538 28
24431 30536 30539 28
24432 30536 30540 28
24433 30541 30542 28
24434 30541 30543 28
24435 30541 30544 28
24436 30541 30545 28
24437 30546 30547 28
24438 30546 30548 28
24439 30546 30549 28
24440 30546 30550 28
24441 30551 30552 28
24442 30551 30553 28
24443 30551 30554 28
24444 30551 30555 28
24445 30556 30557 28
24446 30556 30558 28
24447 30556 30559 28
24448 30556 30560 28
24449 30561 30562 28
24450 30561 30563 28
24451 30561 30564 28
24452 30561 30565 28
24453 30566 30567 28
24454 30566 30568 28
24455 30566 30569 28
24456 30566 30570 28
24457 30571 30572 28
24458 30571 30573 28
24459 30571 30574 28
24460 30571 30575 28
24461 30576 30577 28
24462 30576 30578 28
24463 30576 30579 28
24464 30576 30580 28
24465 30581 30582 28
24466 30581 30583 28
24467 30581 30584 28
24468 30581 30585 28
24469 30586 30587 28
24470 30586 30588 28
24471 30586 30589 28
24472 30586 30590 28
24473 30591 30592 28
24474 30591 30593 28
24475 30591 30594 28
24476 30591 30595 28
24477 30596 30597 28
24478 30596 30598 28
24479 30596 30599 28
24480 30596 30600 28
24481 30601 30602 28
24482 30601 30603 28
24483 30601 30604 28
24484 30601 30605 28
24485 30606 30607 28
24486 30606 30608 28
24487 30606 30609 28
24488 30606 30610 28
24489 30611 30612 28
24490 30611 30613 28
24491 30611 30614 28
24492 30611 30615 28
24493 30616 30617 28
24494 30616 30618 28
24495 30616 30619 28
24496 30616 30620 28
24497 30621 30622 28
24498 30621 30623 28
24499 30621 30624 28
24500 30621 30625 28
24501 30626 30627 28
24502 30626 30628 28
24503 30626 30629 28
24504 30626 30630 28
24505 30631 30632 28
24506 30631 30633 28
24507 30631 30634 28
24508 30631 30635 28
24509 30636 30637 28
24510 30636 30638 28
24511 30636 30639 28
24512 30636 30640 28
24513 30641 30642 28
24514 30641 30643 28
24515 30641 30644 28
24516 30641 30645 28
24517 30646 30647 28
24518 30646 30648 28
24519 30646 30649 28
24520 30646 30650 28
24521 30651 30652 28
24522 30651 30653 28
24523 30651 30654 28
24524 30651 30655 28
24525 30656 30657 28
24526 30656 30658 28
24527 30656 30659 28
24528 30656 30660 28
24529 30661 30662 28
24530 30661 30663 28
24531 30661 30664 28
24532 30661 30665 28
24533 30666 30667 28
24534 30666 30668 28
24535 30666 30669 28
24536 30666 30670 28
24537 30671 30672 28
24538 30671 30673 28
24539 30671 30674 28
24540 30671 30675 28
24541 30676 30677 28
24542 30676 30678 28
24543 30676 30679 28
24544 30676 30680 28
24545 30681 30682 28
24546 30681 30683 28
24547 30681 30684 28
24548 30681 30685 28
24549 30686 30687 28
24550 30686 30688 28
24551 30686 30689 28
24552 30686 30690 28
24553 30691 30692 28
24554 30691 30693 28
24555 30691 30694 28
24556 30691 30695 28
24557 30696 30697 28
24558 30696 30698 28
24559 30696 30699 28
24560 30696 30700 28
24561 30701 30702 28
24562 30701 30703 28
24563 30701 30704 28
24564 30701 30705 28
24565 30706 30707 28
24566 30706 30708 28
24567 30706 30709 28
24568 30706 30710 28
24569 30711 30712 28
24570 30711 30713 28
24571 30711 30714 28
24572 30711 30715 28
24573 30716 30717 28
24574 30716 30718 28
24575 30716 30719 28
24576 30716 30720 28
24577 30721 30722 28
24578 30721 30723 28
24579 30721 30724 28
24580 30721 30725 28
24581 30726 30727 28
24582 30726 30728 28
24583 30726 30729 28
24584 30726 30730 28
24585 30731 30732 28
24586 30731 30733 28
24587 30731 30734 28
24588 30731 30735 28
24589 30736 30737 28
24590 30736 30738 28
24591 30736 30739 28
24592 30736 30740 28
24593 30741 30742 28
24594 30741 30743 28
24595 30741 30744 28
24596 30741 30745 28
24597 30746 30747 28
24598 30746 30748 28
24599 30746 30749 28
24600 30746 30750 28
24601 30751 30752 28
24602 30751 30753 28
24603 30751 30754 28
24604 30751 30755 28
24605 30756 30757 28
24606 30756 30758 28
24607 30756 30759 28
24608 30756 30760 28
24609 30761 30762 28
24610 30761 30763 28
24611 30761 30764 28
24612 30761 30765 28
24613 30766 30767 28
24614 30766 30768 28
24615 30766 30769 28
24616 30766 30770 28
24617 30771 30772 28
24618 30771 30773 28
24619 30771 30774 28
24620 30771 30775 28
24621 30776 30777 28
24622 30776 30778 28
24623 30776 30779 28
24624 30776 30780 28
24625 30781 30782 28
24626 30781 30783 28
24627 30781 30784 28
24628 30781 30785 28
24629 30786 30787 28
24630 30786 30788 28
24631 30786 30789 28
24632 30786 30790 28
24633 30791 30792 28
24634 30791 30793 28
24635 30791 30794 28
24636 30791 30795 28
24637 30796 30797 28
24638 30796 30798 28
24639 30796 30799 28
24640 30796 30800 28
24641 30801 30802 28
24642 30801 30803 28
24643 30801 30804 28
24644 30801 30805 28
24645 30806 30807 28
24646 30806 30808 28
24647 30806 30809 28
24648 30806 30810 28
24649 30811 30812 28
24650 30811 30813 28
24651 30811 30814 28
24652 30811 30815 28
24653 30816 30817 28
24654 30816 30818 28
24655 30816 30819 28
24656 30816 30820 28
24657 30821 30822 28
24658 30821 30823 28
24659 30821 30824 28
24660 30821 30825 28
24661 30826 30827 28
24662 30826 30828 28
24663 30826 30829 28
24664 30826 30830 28
24665 30831 30832 28
24666 30831 30833 28
24667 30831 30834 28
24668 30831 30835 28
24669 30836 30837 28
24670 30836 30838 28
24671 30836 30839 28
24672 30836 30840 28
24673 30841 30842 28
24674 30841 30843 28
24675 30841 30844 28
24676 30841 30845 28
24677 30846 30847 28
24678 30846 30848 28
24679 30846 30849 28
24680 30846 30850 28
24681 30851 30852 28
24682 30851 30853 28
24683 30851 30854 28
24684 30851 30855 28
24685 30856 30857 28
24686 30856 30858 28
24687 30856 30859 28
24688 30856 30860 28
24689 30861 30862 28
24690 30861 30863 28
24691 30861 30864 28
24692 30861 30865 28
24693 30866 30867 28
24694 30866 30868 28
24695 30866 30869 28
24696 30866 30870 28
24697 30871 30872 28
24698 30871 30873 28
24699 30871 30874 28
24700 30871 30875 28
24701 30876 30877 28
24702 30876 30878 28
24703 30876 30879 28
24704 30876 30880 28
24705 30881 30882 28
24706 30881 30883 28
24707 30881 30884 28
24708 30881 30885 28
24709 30886 30887 28
24710 30886 30888 28
24711 30886 30889 28
24712 30886 30890 28
24713 30891 30892 28
24714 30891 30893 28
24715 30891 30894 28
24716 30891 30895 28
24717 30896 30897 28
24718 30896 30898 28
24719 30896 30899 28
24720 30896 30900 28
24721 30901 30902 28
24722 30901 30903 28
24723 30901 30904 28
24724 30901 30905 28
24725 30906 30907 28
24726 30906 30908 28
24727 30906 30909 28
24728 30906 30910 28
24729 30911 30912 28
24730 30911 30913 28
24731 30911 30914 28
24732 30911 30915 28
24733 30916 30917 28
24734 30916 30918 28
24735 30916 30919 28
24736 30916 30920 28
24737 30921 30922 28
24738 30921 30923 28
24739 30921 30924 28
24740 30921 30925 28
24741 30926 30927 28
24742 30926 30928 28
24743 30926 30929 28
24744 30926 30930 28
24745 30931 30932 28
24746 30931 30933 28
24747 30931 30934 28
24748 30931 30935 28
24749 30936 30937 28
24750 30936 30938 28
24751 30936 30939 28
24752 30936 30940 28
24753 30941 30942 28
24754 30941 30943 28
24755 30941 30944 28
24756 30941 30945 28
24757 30946 30947 28
24758 30946 30948 28
24759 30946 30949 28
24760 30946 30950 28
24761 30951 30952 28
24762 30951 30953 28
24763 30951 30954 28
24764 30951 30955 28
24765 30956 30957 28
24766 30956 30958 28
24767 30956 30959 28
24768 30956 30960 28
24769 30961 30962 28
24770 30961 30963 28
24771 30961 30964 28
24772 30961 30965 28
24773 30966 30967 28
24774 30966 30968 28
24775 30966 30969 28
24776 30966 30970 28
24777 30971 30972 28
24778 30971 30973 28
24779 30971 30974 28
24780 30971 30975 28
24781 30976 30977 28
24782 30976 30978 28
24783 30976 30979 28
24784 30976 30980 28
24785 30981 30982 28
24786 30981 30983 28
24787 30981 30984 28
24788 30981 30985 28
24789 30986 30987 28
24790 30986 30988 28
24791 30986 30989 28
24792 30986 30990 28
24793 30991 30992 28
24794 30991 30993 28
24795 30991 30994 28
24796 30991 30995 28
24797 30996 30997 28
24798 30996 30998 28
24799 30996 30999 28
24800 30996 31000 28
24801 31001 31002 28
24802 31001 31003 28
24803 31001 31004 28
24804 31001 31005 28
24805 31006 31007 28
24806 31006 31008 28
24807 31006 31009 28
24808 31006 31010 28
24809 31011 31012 28
24810 31011 31013 28
24811 31011 31014 28
24812 31011 31015 28
24813 31016 31017 28
24814 31016 31018 28
24815 31016 31019 28
24816 31016 31020 28
24817 31021 31022 28
24818 31021 31023 28
24819 31021 31024 28
24820 31021 31025 28
24821 31026 31027 28
24822 31026 31028 28
24823 31026 31029 28
24824 31026 31030 28
24825 31031 31032 28
24826 31031 31033 28
24827 31031 31034 28
24828 31031 31035 28
24829 31036 31037 28
24830 31036 31038 28
24831 31036 31039 28
24832 31036 31040 28
24833 31041 31042 28
24834 31041 31043 28
24835 31041 31044 28
24836 31041 31045 28
24837 31046 31047 28
24838 31046 31048 28
24839 31046 31049 28
24840 31046 31050 28
24841 31051 31052 28
24842 31051 31053 28
24843 31051 31054 28
24844 31051 31055 28
24845 31056 31057 28
24846 31056 31058 28
24847 31056 31059 28
24848 31056 31060 28
24849 31061 31062 28
24850 31061 31063 28
24851 31061 31064 28
24852 31061 31065 28
24853 31066 31067 28
24854 31066 31068 28
24855 31066 31069 28
24856 31066 31070 28
24857 31071 31072 28
24858 31071 31073 28
24859 31071 31074 28
24860 31071 31075 28
24861 31076 31077 28
24862 31076 31078 28
24863 31076 31079 28
24864 31076 31080 28
24865 31081 31082 28
24866 31081 31083 28
24867 31081 31084 28
24868 31081 31085 28
24869 31086 31087 28
24870 31086 31088 28
24871 31086 31089 28
24872 31086 31090 28
24873 31091 31092 28
24874 31091 31093 28
24875 31091 31094 28
24876 31091 31095 28
24877 31096 31097 28
24878 31096 31098 28
24879 31096 31099 28
24880 31096 31100 28
24881 31101 31102 28
24882 31101 31103 28
24883 31101 31104 28
24884 31101 31105 28
24885 31106 31107 28
24886 31106 31108 28
24887 31106 31109 28
24888 31106 31110 28
24889 31111 31112 28
24890 31111 31113 28
24891 31111 31114 28
24892 31111 31115 28
24893 31116 31117 28
24894 31116 31118 28
24895 31116 31119 28
24896 31116 31120 28
24897 31121 31122 28
24898 31121 31123 28
24899 31121 31124 28
24900 31121 31125 28
24901 31126 31127 28
24902 31126 31128 28
24903 31126 31129 28
24904 31126 31130 28
24905 31131 31132 28
24906 31131 31133 28
24907 31131 31134 28
24908 31131 31135 28
24909 31136 31137 28
24910 31136 31138 28
24911 31136 31139 28
24912 31136 31140 28
24913 31141 31142 28
24914 31141 31143 28
24915 31141 31144 28
24916 31141 31145 28
24917 31146 31147 28
24918 31146 31148 28
24919 31146 31149 28
24920 31146 31150 28
24921 31151 31152 28
24922 31151 31153 28
24923 31151 31154 28
24924 31151 31155 28
24925 31156 31157 28
24926 31156 31158 28
24927 31156 31159 28
24928 31156 31160 28
24929 31161 31162 28
24930 31161 31163 28
24931 31161 31164 28
24932 31161 31165 28
24933 31166 31167 28
24934 31166 31168 28
24935 31166 31169 28
24936 31166 31170 28
24937 31171 31172 28
24938 31171 31173 28
24939 31171 31174 28
24940 31171 31175 28
24941 31176 31177 28
24942 31176 31178 28
24943 31176 31179 28
24944 31176 31180 28
24945 31181 31182 28
24946 31181 31183 28
24947 31181 31184 28
24948 31181 31185 28
24949 31186 31187 28
24950 31186 31188 28
24951 31186 31189 28
24952 31186 31190 28
24953 31191 31192 28
24954 31191 31193 28
24955 31191 31194 28
24956 31191 31195 28
24957 31196 31197 28
24958 31196 31198 28
24959 31196 31199 28
24960 31196 31200 28
24961 31201 31202 28
24962 31201 31203 28
24963 31201 31204 28
24964 31201 31205 28
24965 31206 31207 28
24966 31206 31208 28
24967 31206 31209 28
24968 31206 31210 28
24969 31211 31212 28
24970 31211 31213 28
24971 31211 31214 28
24972 31211 31215 28
24973 31216 31217 28
24974 31216 31218 28
24975 31216 31219 28
24976 31216 31220 28
24977 31221 31222 28
24978 31221 31223 28
24979 31221 31224 28
24980 31221 31225 28
24981 31226 31227 28
24982 31226 31228 28
24983 31226 31229 28
24984 31226 31230 28
24985 31231 31232 28
24986 31231 31233 28
24987 31231 31234 28
24988 31231 31235 28
24989 31236 31237 28
24990 31236 31238 28
24991 31236 31239 28
24992 31236 31240 28
24993 31241 31242 28
24994 31241 31243 28
24995 31241 31244 28
24996 31241 31245 28
24997 31246 31247 28
24998 31246 31248 28
24999 31246 31249 28
25000 31246 31250 28
25001 31251 31252 28
25002 31251 31253 28
25003 31251 31254 28
25004 31251 31255 28
25005 31256 31257 28
25006 31256 31258 28
25007 31256 31259 28
25008 31256 31260 28
25009 31261 31262 28
25010 31261 31263 28
25011 31261 31264 28
25012 31261 31265 28
25013 31266 31267 28
25014 31266 31268 28
25015 31266 31269 28
25016 31266 31270 28
25017 31271 31272 28
25018 31271 31273 28
25019 31271 31274 28
25020 31271 31275 28
25021 31276 31277 28
25022 31276 31278 28
25023 31276 31279 28
25024 31276 31280 28
25025 31281 31282 28
25026 31281 31283 28
25027 31281 31284 28
25028 31281 31285 28
25029 31286 31287 28
25030 31286 31288 28
25031 31286 31289 28
25032 31286 31290 28
25033 31291 31292 28
25034 31291 31293 28
25035 31291 31294 28
25036 31291 31295 28
25037 31296 31297 28
25038 31296 31298 28
25039 31296 31299 28
25040 31296 31300 28
25041 31301 31302 28
25042 31301 31303 28
25043 31301 31304 28
25044 31301 31305 28
25045 31306 31307 28
25046 31306 31308 28
25047 31306 31309 28
25048 31306 31310 28
25049 31311 31312 28
25050 31311 31313 28
25051 31311 31314 28
25052 31311 31315 28
25053 31316 31317 28
25054 31316 31318 28
25055 31316 31319 28
25056 31316 31320 28
25057 31321 31322 28
25058 31321 31323 28
25059 31321 31324 28
25060 31321 31325 28
25061 31326 31327 28
25062 31326 31328 28
25063 31326 31329 28
25064 31326 31330 28
25065 31331 31332 28
25066 31331 31333 28
25067 31331 31334 28
25068 31331 31335 28
25069 31336 31337 28
25070 31336 31338 28
25071 31336 31339 28
25072 31336 31340 28
25073 31341 31342 28
25074 31341 31343 28
25075 31341 31344 28
25076 31341 31345 28
25077 31346 31347 28
25078 31346 31348 28
25079 31346 31349 28
25080 31346 31350 28
25081 31351 31352 28
25082 31351 31353 28
25083 31351 31354 28
25084 31351 31355 28
25085 31356 31357 28
25086 31356 31358 28
25087 31356 31359 28
25088 31356 31360 28
25089 31361 31362 28
25090 31361 31363 28
25091 31361 31364 28
25092 31361 31365 28
25093 31366 31367 28
25094 31366 31368 28
25095 31366 31369 28
25096 31366 31370 28
25097 31371 31372 28
25098 31371 31373 28
25099 31371 31374 28
25100 31371 31375 28
25101 31376 31377 28
25102 31376 31378 28
25103 31376 31379 28
25104 31376 31380 28
25105 31381 31382 28
25106 31381 31383 28
25107 31381 31384 28
25108 31381 31385 28
25109 31386 31387 28
25110 31386 31388 28
25111 31386 31389 28
25112 31386 31390 28
25113 31391 31392 28
25114 31391 31393 28
25115 31391 31394 28
25116 31391 31395 28
25117 31396 31397 28
25118 31396 31398 28
25119 31396 31399 28
25120 31396 31400 28
25121 31401 31402 28
25122 31401 31403 28
25123 31401 31404 28
25124 31401 31405 28
25125 31406 31407 28
25126 31406 31408 28
25127 31406 31409 28
25128 31406 31410 28
25129 31411 31412 28
25130 31411 31413 28
25131 31411 31414 28
25132 31411 31415 28
25133 31416 31417 28
25134 31416 31418 28
25135 31416 31419 28
25136 31416 31420 28
25137 31421 31422 28
25138 31421 31423 28
25139 31421 31424 28
25140 31421 31425 28
25141 31426 31427 28
25142 31426 31428 28
25143 31426 31429 28
25144 31426 31430 28
25145 31431 31432 28
25146 31431 31433 28
25147 31431 31434 28
25148 31431 31435 28
25149 31436 31437 28
25150 31436 31438 28
25151 31436 31439 28
25152 31436 31440 28
25153 31441 31442 28
25154 31441 31443 28
25155 31441 31444 28
25156 31441 31445 28
25157 31446 31447 28
25158 31446 31448 28
25159 31446 31449 28
25160 31446 31450 28
25161 31451 31452 28
25162 31451 31453 28
25163 31451 31454 28
25164 31451 31455 28
25165 31456 31457 28
25166 31456 31458 28
25167 31456 31459 28
25168 31456 31460 28
25169 31461 31462 28
25170 31461 31463 28
25171 31461 31464 28
25172 31461 31465 28
25173 31466 31467 28
25174 31466 31468 28
25175 31466 31469 28
25176 31466 31470 28
25177 31471 31472 28
25178 31471 31473 28
25179 31471 31474 28
25180 31471 31475 28
25181 31476 31477 28
25182 31476 31478 28
25183 31476 31479 28
25184 31476 31480 28
25185 31481 31482 28
25186 31481 31483 28
25187 31481 31484 28
25188 31481 31485 28
25189 31486 31487 28
25190 31486 31488 28
25191 31486 31489 28
25192 31486 31490 28
25193 31491 31492 28
25194 31491 31493 28
25195 31491 31494 28
25196 31491 31495 28
25197 31496 31497 28
25198 31496 31498 28
25199 31496 31499 28
25200 31496 31500 28
25201 31501 31502 28
25202 31501 31503 28
25203 31501 31504 28
25204 31501 31505 28
25205 31506 31507 28
25206 31506 31508 28
25207 31506 31509 28
25208 31506 31510 28
25209 31511 31512 28
25210 31511 31513 28
25211 31511 31514 28
25212 31511 31515 28
25213 31516 31517 28
25214 31516 31518 28
25215 31516 31519 28
25216 31516 31520 28
25217 31521 31522 28
25218 31521 31523 28
25219 31521 31524 28
25220 31521 31525 28
25221 31526 31527 28
25222 31526 31528 28
25223 31526 31529 28
25224 31526 31530 28
25225 31531 31532 28
25226 31531 31533 28
25227 31531 31534 28
25228 31531 31535 28
25229 31536 31537 28
25230 31536 31538 28
25231 31536 31539 28
25232 31536 31540 28
25233 31541 31542 28
25234 31541 31543 28
25235 31541 31544 28
25236 31541 31545 28
25237 31546 31547 28
25238 31546 31548 28
25239 31546 31549 28
25240 31546 31550 28
25241 31551 31552 28
25242 31551 31553 28
25243 31551 31554 28
25244 31551 31555 28
25245 31556 31557 28
25246 31556 31558 28
25247 31556 31559 28
25248 31556 31560 28
25249 31561 31562 28
25250 31561 31563 28
25251 31561 31564 28
25252 31561 31565 28
25253 31566 31567 28
25254 31566 31568 28
25255 31566 31569 28
25256 31566 31570 28
25257 31571 31572 28
25258 31571 31573 28
25259 31571 31574 28
25260 31571 31575 28
25261 31576 31577 28
25262 31576 31578 28
25263 31576 31579 28
25264 31576 31580 28
25265 31581 31582 28
25266 31581 31583 28
25267 31581 31584 28
25268 31581 31585 28
25269 31586 31587 28
25270 31586 31588 28
25271 31586 31589 28
25272 31586 31590 28
25273 31591 31592 28
25274 31591 31593 28
25275 31591 31594 28
25276 31591 31595 28
25277 31596 31597 28
25278 31596 31598 28
25279 31596 31599 28
25280 31596 31600 28
25281 31601 31602 28
25282 31601 31603 28
25283 31601 31604 28
25284 31601 31605 28
25285 31606 31607 28
25286 31606 31608 28
25287 31606 31609 28
25288 31606 31610 28
25289 31611 31612 28
25290 31611 31613 28
25291 31611 31614 28
25292 31611 31615 28
25293 31616 31617 28
25294 31616 31618 28
25295 31616 31619 28
25296 31616 31620 28
25297 31621 31622 28
25298 31621 31623 28
25299 31621 31624 28
25300 31621 31625 28
25301 31626 31627 28
25302 31626 31628 28
25303 31626 31629 28
25304 31626 31630 28
25305 31631 31632 28
25306 31631 31633 28
25307 31631 31634 28
25308 31631 31635 28
25309 31636 31637 28
25310 31636 31638 28
25311 31636 31639 28
25312 31636 31640 28
25313 31641 31642 28
25314 31641 31643 28
25315 31641 31644 28
25316 31641 31645 28
25317 31646 31647 28
25318 31646 31648 28
25319 31646 31649 28
25320 31646 31650 28
25321 31651 31652 28
25322 31651 31653 28
25323 31651 31654 28
25324 31651 31655 28
25325 31656 31657 28
25326 31656 31658 28
25327 31656 31659 28
25328 31656 31660 28
25329 31661 31662 28
25330 31661 31663 28
25331 31661 31664 28
25332 31661 31665 28
25333 31666 31667 28
25334 31666 31668 28
25335 31666 31669 28
25336 31666 31670 28
25337 31671 31672 28
25338 31671 31673 28
25339 31671 31674 28
25340 31671 31675 28
25341 31676 31677 28
25342 31676 31678 28
25343 31676 31679 28
25344 31676 31680 28
25345 31681 31682 28
25346 31681 31683 28
25347 31681 31684 28
25348 31681 31685 28
25349 31686 31687 28
25350 31686 31688 28
25351 31686 31689 28
25352 31686 31690 28
25353 31691 31692 28
25354 31691 31693 28
25355 31691 31694 28
25356 31691 31695 28
25357 31696 31697 28
25358 31696 31698 28
25359 31696 31699 28
25360 31696 31700 28
25361 31701 31702 28
25362 31701 31703 28
25363 31701 31704 28
25364 31701 31705 28
25365 31706 31707 28
25366 31706 31708 28
25367 31706 31709 28
25368 31706 31710 28
25369 31711 31712 28
25370 31711 31713 28
25371 31711 31714 28
25372 31711 31715 28
25373 31716 31717 28
25374 31716 31718 28
25375 31716 31719 28
25376 31716 31720 28
25377 31721 31722 28
25378 31721 31723 28
25379 31721 31724 28
25380 31721 31725 28
25381 31726 31727 28
25382 31726 31728 28
25383 31726 31729 28
25384 31726 31730 28
25385 31731 31732 28
25386 31731 31733 28
25387 31731 31734 28
25388 31731 31735 28
25389 31736 31737 28
25390 31736 31738 28
25391 31736 31739 28
25392 31736 31740 28
25393 31741 31742 28
25394 31741 31743 28
25395 31741 31744 28
25396 31741 31745 28
25397 31746 31747 28
25398 31746 31748 28
25399 31746 31749 28
25400 31746 31750 28
25401 31751 31752 28
25402 31751 31753 28
25403 31751 31754 28
25404 31751 31755 28
25405 31756 31757 28
25406 31756 31758 28
25407 31756 31759 28
25408 31756 31760 28
25409 31761 31762 28
25410 31761 31763 28
25411 31761 31764 28
25412 31761 31765 28
25413 31766 31767 28
25414 31766 31768 28
25415 31766 31769 28
25416 31766 31770 28
25417 31771 31772 28
25418 31771 31773 28
25419 31771 31774 28
25420 31771 31775 28
25421 31776 31777 28
25422 31776 31778 28
25423 31776 31779 28
25424 31776 31780 28
25425 31781 31782 28
25426 31781 31783 28
25427 31781 31784 28
25428 31781 31785 28
25429 31786 31787 28
25430 31786 31788 28
25431 31786 31789 28
25432 31786 31790 28
25433 31791 31792 28
25434 31791 31793 28
25435 31791 31794 28
25436 31791 31795 28
25437 31796 31797 28
25438 31796 31798 28
25439 31796 31799 28
25440 31796 31800 28
25441 31801 31802 28
25442 31801 31803 28
25443 31801 31804 28
25444 31801 31805 28
25445 31806 31807 28
25446 31806 31808 28
25447 31806 31809 28
25448 31806 31810 28
25449 31811 31812 28
25450 31811 31813 28
25451 31811 31814 28
25452 31811 31815 28
25453 31816 31817 28
25454 31816 31818 28
25455 31816 31819 28
25456 31816 31820 28
25457 31821 31822 28
25458 31821 31823 28
25459 31821 31824 28
25460 31821 31825 28
25461 31826 31827 28
25462 31826 31828 28
25463 31826 31829 28
25464 31826 31830 28
25465 31831 31832 28
25466 31831 31833 28
25467 31831 31834 28
25468 31831 31835 28
25469 31836 31837 28
25470 31836 31838 28
25471 31836 31839 28
25472 31836 31840 28
25473 31841 31842 28
25474 31841 31843 28
25475 31841 31844 28
25476 31841 31845 28
25477 31846 31847 28
25478 31846 31848 28
25479 31846 31849 28
25480 31846 31850 28
25481 31851 31852 28
25482 31851 31853 28
25483 31851 31854 28
25484 31851 31855 28
25485 31856 31857 28
25486 31856 31858 28
25487 31856 31859 28
25488 31856 31860 28
25489 31861 31862 28
25490 31861 31863 28
25491 31861 31864 28
25492 31861 31865 28
25493 31866 31867 28
25494 31866 31868 28
25495 31866 31869 28
25496 31866 31870 28
25497 31871 31872 28
25498 31871 31873 28
25499 31871 31874 28
25500 31871 31875 28
25501 31876 31877 28
25502 31876 31878 28
25503 31876 31879 28
25504 31876 31880 28
25505 31881 31882 28
25506 31881 31883 28
25507 31881 31884 28
25508 31881 31885 28
25509 31886 31887 28
25510 31886 31888 28
25511 31886 31889 28
25512 31886 31890 28
25513 31891 31892 28
25514 31891 31893 28
25515 31891 31894 28
25516 31891 31895 28
25517 31896 31897 28
25518 31896 31898 28
25519 31896 31899 28
25520 31896 31900 28
25521 31901 31902 28
25522 31901 31903 28
25523 31901 31904 28
25524 31901 31905 28
25525 31906 31907 28
25526 31906 31908 28
25527 31906 31909 28
25528 31906 31910 28
25529 31911 31912 28
25530 31911 31913 28
25531 31911 31914 28
25532 31911 31915 28
25533 31916 31917 28
25534 31916 31918 28
25535 31916 31919 28
25536 31916 31920 28
25537 31921 31922 28
25538 31921 31923 28
25539 31921 31924 28
25540 31921 31925 28
25541 31926 31927 28
25542 31926 31928 28
25543 31926 31929 28
25544 31926 31930 28
25545 31931 31932 28
25546 31931 31933 28
25547 31931 31934 28
25548 31931 31935 28
25549 31936 31937 28
25550 31936 31938 28
25551 31936 31939 28
25552 31936 31940 28
25553 31941 31942 28
25554 31941 31943 28
25555 31941 31944 28
25556 31941 31945 28
25557 31946 31947 28
25558 31946 31948 28
25559 31946 31949 28
25560 31946 31950 28
25561 31951 31952 28
25562 31951 31953 28
25563 31951 31954 28
25564 31951 31955 28
25565 31956 31957 28
25566 31956 31958 28
25567 31956 31959 28
25568 31956 31960 28
25569 31961 31962 28
25570 31961 31963 28
25571 31961 31964 28
25572 31961 31965 28
25573 31966 31967 28
25574 31966 31968 28
25575 31966 31969 28
25576 31966 31970 28
25577 31971 31972 28
25578 31971 31973 28
25579 31971 31974 28
25580 31971 31975 28
25581 31976 31977 28
25582 31976 31978 28
25583 31976 31979 28
25584 31976 31980 28
25585 31981 31982 28
25586 31981 31983 28
25587 31981 31984 28
25588 31981 31985 28
25589 31986 31987 28
25590 31986 31988 28
25591 31986 31989 28
25592 31986 31990 28
25593 31991 31992 28
25594 31991 31993 28
25595 31991 31994 28
25596 31991 31995 28
25597 31996 31997 28
25598 31996 31998 28
25599 31996 31999 28
25600 31996 32000 28
25601 32001 32002 28
25602 32001 32003 28
25603 32001 32004 28
25604 32001 32005 28
25605 32006 32007 28
25606 32006 32008 28
25607 32006 32009 28
25608 32006 32010 28
25609 32011 32012 28
25610 32011 32013 28
25611 32011 32014 28
25612 32011 32015 28
25613 32016 32017 28
25614 32016 32018 28
25615 32016 32019 28
25616 32016 32020 28
25617 32021 32022 28
25618 32021 32023 28
25619 32021 32024 28
25620 32021 32025 28
25621 32026 32027 28
25622 32026 32028 28
25623 32026 32029 28
25624 32026 32030 28
25625 32031 32032 28
25626 32031 32033 28
25627 32031 32034 28
25628 32031 32035 28
25629 32036 32037 28
25630 32036 32038 28
25631 32036 32039 28
25632 32036 32040 28
25633 32041 32042 28
25634 32041 32043 28
25635 32041 32044 28
25636 32041 32045 28
25637 32046 32047 28
25638 32046 32048 28
25639 32046 32049 28
25640 32046 32050 28
25641 32051 32052 28
25642 32051 32053 28
25643 32051 32054 28
25644 32051 32055 28
25645 32056 32057 28
25646 32056 32058 28
25647 32056 32059 28
25648 32056 32060 28
25649 32061 32062 28
25650 32061 32063 28
25651 32061 32064 28
25652 32061 32065 28
25653 32066 32067 28
25654 32066 32068 28
25655 32066 32069 28
25656 32066 32070 28
25657 32071 32072 28
25658 32071 32073 28
25659 32071 32074 28
25660 32071 32075 28
25661 32076 32077 28
25662 32076 32078 28
25663 32076 32079 28
25664 32076 32080 28
25665 32081 32082 28
25666 32081 32083 28
25667 32081 32084 28
25668 32081 32085 28
25669 32086 32087 28
25670 32086 32088 28
25671 32086 32089 28
25672 32086 32090 28
25673 32091 32092 28
25674 32091 32093 28
25675 32091 32094 28
25676 32091 32095 28
25677 32096 32097 28
25678 32096 32098 28
25679 32096 32099 28
25680 32096 32100 28
25681 32101 32102 28
25682 32101 32103 28
25683 32101 32104 28
25684 32101 32105 28
25685 32106 32107 28
25686 32106 32108 28
25687 32106 32109 28
25688 32106 32110 28
25689 32111 32112 28
25690 32111 32113 28
25691 32111 32114 28
25692 32111 32115 28
25693 32116 32117 28
25694 32116 32118 28
25695 32116 32119 28
25696 32116 32120 28
25697 32121 32122 28
25698 32121 32123 28
25699 32121 32124 28
25700 32121 32125 28
25701 32126 32127 28
25702 32126 32128 28
25703 32126 32129 28
25704 32126 32130 28
25705 32131 32132 28
25706 32131 32133 28
25707 32131 32134 28
25708 32131 32135 28
25709 32136 32137 28
25710 32136 32138 28
25711 32136 32139 28
25712 32136 32140 28
25713 32141 32142 28
25714 32141 32143 28
25715 32141 32144 28
25716 32141 32145 28
25717 32146 32147 28
25718 32146 32148 28
25719 32146 32149 28
25720 32146 32150 28
25721 32151 32152 28
25722 32151 32153 28
25723 32151 32154 28
25724 32151 32155 28
25725 32156 32157 28
25726 32156 32158 28
25727 32156 32159 28
25728 32156 32160 28
25729 32161 32162 28
25730 32161 32163 28
25731 32161 32164 28
25732 32161 32165 28
25733 32166 32167 28
25734 32166 32168 28
25735 32166 32169 28
25736 32166 32170 28
25737 32171 32172 28
25738 32171 32173 28
25739 32171 32174 28
25740 32171 32175 28
25741 32176 32177 28
25742 32176 32178 28
25743 32176 32179 28
25744 32176 32180 28
25745 32181 32182 28
25746 32181 32183 28
25747 32181 32184 28
25748 32181 32185 28
25749 32186 32187 28
25750 32186 32188 28
25751 32186 32189 28
25752 32186 32190 28
25753 32191 32192 28
25754 32191 32193 28
25755 32191 32194 28
25756 32191 32195 28
25757 32196 32197 28
25758 32196 32198 28
25759 32196 32199 28
25760 32196 32200 28
25761 32201 32202 28
25762 32201 32203 28
25763 32201 32204 28
25764 32201 32205 28
25765 32206 32207 28
25766 32206 32208 28
25767 32206 32209 28
25768 32206 32210 28
25769 32211 32212 28
25770 32211 32213 28
25771 32211 32214 28
25772 32211 32215 28
25773 32216 32217 28
25774 32216 32218 28
25775 32216 32219 28
25776 32216 32220 28
25777 32221 32222 28
25778 32221 32223 28
25779 32221 32224 28
25780 32221 32225 28
25781 32226 32227 28
25782 32226 32228 28
25783 32226 32229 28
25784 32226 32230 28
25785 32231 32232 28
25786 32231 32233 28
25787 32231 32234 28
25788 32231 32235 28
25789 32236 32237 28
25790 32236 32238 28
25791 32236 32239 28
25792 32236 32240 28
25793 32241 32242 28
25794 32241 32243 28
25795 32241 32244 28
25796 32241 32245 28
25797 32246 32247 28
25798 32246 32248 28
25799 32246 32249 28
25800 32246 32250 28
25801 32251 32252 28
25802 32251 32253 28
25803 32251 32254 28
25804 32251 32255 28
25805 32256 32257 28
25806 32256 32258 28
25807 32256 32259 28
25808 32256 32260 28
25809 32261 32262 28
25810 32261 32263 28
25811 32261 32264 28
25812 32261 32265 28
25813 32266 32267 28
25814 32266 32268 28
25815 32266 32269 28
25816 32266 32270 28
25817 32271 32272 28
25818 32271 32273 28
25819 32271 32274 28
25820 32271 32275 28
25821 32276 32277 28
25822 32276 32278 28
25823 32276 32279 28
25824 32276 32280 28
25825 32281 32282 28
25826 32281 32283 28
25827 32281 32284 28
25828 32281 32285 28
25829 32286 32287 28
25830 32286 32288 28
25831 32286 32289 28
25832 32286 32290 28
25833 32291 32292 28
25834 32291 32293 28
25835 32291 32294 28
25836 32291 32295 28
25837 32296 32297 28
25838 32296 32298 28
25839 32296 32299 28
25840 32296 32300 28
25841 32301 32302 28
25842 32301 32303 28
25843 32301 32304 28
25844 32301 32305 28
25845 32306 32307 28
25846 32306 32308 28
25847 32306 32309 28
25848 32306 32310 28
25849 32311 32312 28
25850 32311 32313 28
25851 32311 32314 28
25852 32311 32315 28
25853 32316 32317 28
25854 32316 32318 28
25855 32316 32319 28
25856 32316 32320 28
25857 32321 32322 28
25858 32321 32323 28
25859 32321 32324 28
25860 32321 32325 28
25861 32326 32327 28
25862 32326 32328 28
25863 32326 32329 28
25864 32326 32330 28
25865 32331 32332 28
25866 32331 32333 28
25867 32331 32334 28
25868 32331 32335 28
25869 32336 32337 28
25870 32336 32338 28
25871 32336 32339 28
25872 32336 32340 28
25873 32341 32342 28
25874 32341 32343 28
25875 32341 32344 28
25876 32341 32345 28
25877 32346 32347 28
25878 32346 32348 28
25879 32346 32349 28
25880 32346 32350 28
25881 32351 32352 28
25882 32351 32353 28
25883 32351 32354 28
25884 32351 32355 28
25885 32356 32357 28
25886 32356 32358 28
25887 32356 32359 28
25888 32356 32360 28
25889 32361 32362 28
25890 32361 32363 28
25891 32361 32364 28
25892 32361 32365 28
25893 32366 32367 28
25894 32366 32368 28
25895 32366 32369 28
25896 32366 32370 28
25897 32371 32372 28
25898 32371 32373 28
25899 32371 32374 28
25900 32371 32375 28
25901 32376 32377 28
25902 32376 32378 28
25903 32376 32379 28
25904 32376 32380 28
25905 32381 32382 28
25906 32381 32383 28
25907 32381 32384 28
25908 32381 32385 28
25909 32386 32387 28
25910 32386 32388 28
25911 32386 32389 28
25912 32386 32390 28
25913 32391 32392 28
25914 32391 32393 28
25915 32391 32394 28
25916 32391 32395 28
25917 32396 32397 28
25918 32396 32398 28
25919 32396 32399 28
25920 32396 32400 28
25921 32401 32402 28
25922 32401 32403 28
25923 32401 32404 28
25924 32401 32405 28
25925 32406 32407 28
25926 32406 32408 28
25927 32406 32409 28
25928 32406 32410 28
25929 32411 32412 28
25930 32411 32413 28
25931 32411 32414 28
25932 32411 32415 28
25933 32416 32417 28
25934 32416 32418 28
25935 32416 32419 28
25936 32416 32420 28
25937 32421 32422 28
25938 32421 32423 28
25939 32421 32424 28
25940 32421 32425 28
25941 32426 32427 28
25942 32426 32428 28
25943 32426 32429 28
25944 32426 32430 28
25945 32431 32432 28
25946 32431 32433 28
25947 32431 32434 28
25948 32431 32435 28
25949 32436 32437 28
25950 32436 32438 28
25951 32436 32439 28
25952 32436 32440 28
25953 32441 32442 28
25954 32441 32443 28
25955 32441 32444 28
25956 32441 32445 28
25957 32446 32447 28
25958 32446 32448 28
25959 32446 32449 28
25960 32446 32450 28
25961 32451 32452 28
25962 32451 32453 28
25963 32451 32454 28
25964 32451 32455 28
25965 32456 32457 28
25966 32456 32458 28
25967 32456 32459 28
25968 32456 32460 28
25969 32461 32462 28
25970 32461 32463 28
25971 32461 32464 28
25972 32461 32465 28
25973 32466 32467 28
25974 32466 32468 28
25975 32466 32469 28
25976 32466 32470 28
25977 32471 32472 28
25978 32471 32473 28
25979 32471 32474 28
25980 32471 32475 28
25981 32476 32477 28
25982 32476 32478 28
25983 32476 32479 28
25984 32476 32480 28
25985 32481 32482 28
25986 32481 32483 28
25987 32481 32484 28
25988 32481 32485 28
25989 32486 32487 28
25990 32486 32488 28
25991 32486 32489 28
25992 32486 32490 28
25993 32491 32492 28
25994 32491 32493 28
25995 32491 32494 28
25996 32491 32495 28
25997 32496 32497 28
25998 32496 32498 28
25999 32496 32499 28
26000 32496 32500 28
26001 32501 32502 28
26002 32501 32503 28
26003 32501 32504 28
26004 32501 32505 28
26005 32506 32507 28
26006 32506 32508 28
26007 32506 32509 28
26008 32506 32510 28
26009 32511 32512 28
26010 32511 32513 28
26011 32511 32514 28
26012 32511 32515 28
26013 32516 32517 28
26014 32516 32518 28
26015 32516 32519 28
26016 32516 32520 28
26017 32521 32522 28
26018 32521 32523 28
26019 32521 32524 28
26020 32521 32525 28
26021 32526 32527 28
26022 32526 32528 28
26023 32526 32529 28
26024 32526 32530 28
26025 32531 32532 28
26026 32531 32533 28
26027 32531 32534 28
26028 32531 32535 28
26029 32536 32537 28
26030 32536 32538 28
26031 32536 32539 28
26032 32536 32540 28
26033 32541 32542 28
26034 32541 32543 28
26035 32541 32544 28
26036 32541 32545 28
26037 32546 32547 28
26038 32546 32548 28
26039 32546 32549 28
26040 32546 32550 28
26041 32551 32552 28
26042 32551 32553 28
26043 32551 32554 28
26044 32551 32555 28
26045 32556 32557 28
26046 32556 32558 28
26047 32556 32559 28
26048 32556 32560 28
26049 32561 32562 28
26050 32561 32563 28
26051 32561 32564 28
26052 32561 32565 28
26053 32566 32567 28
26054 32566 32568 28
26055 32566 32569 28
26056 32566 32570 28
26057 32571 32572 28
26058 32571 32573 28
26059 32571 32574 28
26060 32571 32575 28
26061 32576 32577 28
26062 32576 32578 28
26063 32576 32579 28
26064 32576 32580 28
26065 32581 32582 28
26066 32581 32583 28
26067 32581 32584 28
26068 32581 32585 28
26069 32586 32587 28
26070 32586 32588 28
26071 32586 32589 28
26072 32586 32590 28
26073 32591 32592 28
26074 32591 32593 28
26075 32591 32594 28
26076 32591 32595 28
26077 32596 32597 28
26078 32596 32598 28
26079 32596 32599 28
26080 32596 32600 28
26081 32601 32602 28
26082 32601 32603 28
26083 32601 32604 28
26084 32601 32605 28
26085 32606 32607 28
26086 32606 32608 28
26087 32606 32609 28
26088 32606 32610 28
26089 32611 32612 28
26090 32611 32613 28
26091 32611 32614 28
26092 32611 32615 28
26093 32616 32617 28
26094 32616 32618 28
26095 32616 32619 28
26096 32616 32620 28
26097 32621 32622 28
26098 32621 32623 28
26099 32621 32624 28
26100 32621 32625 28
26101 32626 32627 28
26102 32626 32628 28
26103 32626 32629 28
26104 32626 32630 28
26105 32631 32632 28
26106 32631 32633 28
26107 32631 32634 28
26108 32631 32635 28
26109 32636 32637 28
26110 32636 32638 28
26111 32636 32639 28
26112 32636 32640 28
26113 32641 32642 28
26114 32641 32643 28
26115 32641 32644 28
26116 32641 32645 28
26117 32646 32647 28
26118 32646 32648 28
26119 32646 32649 28
26120 32646 32650 28
26121 32651 32652 28
26122 32651 32653 28
26123 32651 32654 28
26124 32651 32655 28
26125 32656 32657 28
26126 32656 32658 28
26127 32656 32659 28
26128 32656 32660 28
26129 32661 32662 28
26130 32661 32663 28
26131 32661 32664 28
26132 32661 32665 28
26133 32666 32667 28
26134 32666 32668 28
26135 32666 32669 28
26136 32666 32670 28
26137 32671 32672 28
26138 32671 32673 28
26139 32671 32674 28
26140 32671 32675 28
26141 32676 32677 28
26142 32676 32678 28
26143 32676 32679 28
26144 32676 32680 28
26145 32681 32682 28
26146 32681 32683 28
26147 32681 32684 28
26148 32681 32685 28
26149 32686 32687 28
26150 32686 32688 28
26151 32686 32689 28
26152 32686 32690 28
26153 32691 32692 28
26154 32691 32693 28
26155 32691 32694 28
26156 32691 32695 28
26157 32696 32697 28
26158 32696 32698 28
26159 32696 32699 28
26160 32696 32700 28
26161 32701 32702 28
26162 32701 32703 28
26163 32701 32704 28
26164 32701 32705 28
26165 32706 32707 28
26166 32706 32708 28
26167 32706 32709 28
26168 32706 32710 28
26169 32711 32712 28
26170 32711 32713 28
26171 32711 32714 28
26172 32711 32715 28
26173 32716 32717 28
26174 32716 32718 28
26175 32716 32719 28
26176 32716 32720 28
26177 32721 32722 28
26178 32721 32723 28
26179 32721 32724 28
26180 32721 32725 28
26181 32726 32727 28
26182 32726 32728 28
26183 32726 32729 28
26184 32726 32730 28
26185 32731 32732 28
26186 32731 32733 28
26187 32731 32734 28
26188 32731 32735 28
26189 32736 32737 28
26190 32736 32738 28
26191 32736 32739 28
26192 32736 32740 28
26193 32741 32742 28
26194 32741 32743 28
26195 32741 32744 28
26196 32741 32745 28
26197 32746 32747 28
26198 32746 32748 28
26199 32746 32749 28
26200 32746 32750 28
26201 32751 32752 28
26202 32751 32753 28
26203 32751 32754 28
26204 32751 32755 28
26205 32756 32757 28
26206 32756 32758 28
26207 32756 32759 28
26208 32756 32760 28
26209 32761 32762 28
26210 32761 32763 28
26211 32761 32764 28
26212 32761 32765 28
26213 32766 32767 28
26214 32766 32768 28
26215 32766 32769 28
26216 32766 32770 28
26217 32771 32772 28
26218 32771 32773 28
26219 32771 32774 28
26220 32771 32775 28
26221 32776 32777 28
26222 32776 32778 28
26223 32776 32779 28
26224 32776 32780 28
26225 32781 32782 28
26226 32781 32783 28
26227 32781 32784 28
26228 32781 32785 28
26229 32786 32787 28
26230 32786 32788 28
26231 32786 32789 28
26232 32786 32790 28
26233 32791 32792 28
26234 32791 32793 28
26235 32791 32794 28
26236 32791 32795 28
26237 32796 32797 28
26238 32796 32798 28
26239 32796 32799 28
26240 32796 32800 28
26241 32801 32802 28
26242 32801 32803 28
26243 32801 32804 28
26244 32801 32805 28
26245 32806 32807 28
26246 32806 32808 28
26247 32806 32809 28
26248 32806 32810 28
26249 32811 32812 28
26250 32811 32813 28
26251 32811 32814 28
26252 32811 32815 28
26253 32816 32817 28
26254 32816 32818 28
26255 32816 32819 28
26256 32816 32820 28
26257 32821 32822 28
26258 32821 32823 28
26259 32821 32824 28
26260 32821 32825 28
26261 32826 32827 28
26262 32826 32828 28
26263 32826 32829 28
26264 32826 32830 28
26265 32831 32832 28
26266 32831 32833 28
26267 32831 32834 28
26268 32831 32835 28
26269 32836 32837 28
26270 32836 32838 28
26271 32836 32839 28
26272 32836 32840 28
26273 32841 32842 28
26274 32841 32843 28
26275 32841 32844 28
26276 32841 32845 28
26277 32846 32847 28
26278 32846 32848 28
26279 32846 32849 28
26280 32846 32850 28
26281 32851 32852 28
26282 32851 32853 28
26283 32851 32854 28
26284 32851 32855 28
26285 32856 32857 28
26286 32856 32858 28
26287 32856 32859 28
26288 32856 32860 28
26289 32861 32862 28
26290 32861 32863 28
26291 32861 32864 28
26292 32861 32865 28
26293 32866 32867 28
26294 32866 32868 28
26295 32866 32869 28
26296 32866 32870 28
26297 32871 32872 28
26298 32871 32873 28
26299 32871 32874 28
26300 32871 32875 28
26301 32876 32877 28
26302 32876 32878 28
26303 32876 32879 28
26304 32876 32880 28
26305 32881 32882 28
26306 32881 32883 28
26307 32881 32884 28
26308 32881 32885 28
26309 32886 32887 28
26310 32886 32888 28
26311 32886 32889 28
26312 32886 32890 28
26313 32891 32892 28
26314 32891 32893 28
26315 32891 32894 28
26316 32891 32895 28
26317 32896 32897 28
26318 32896 32898 28
26319 32896 32899 28
26320 32896 32900 28
26321 32901 32902 28
26322 32901 32903 28
26323 32901 32904 28
26324 32901 32905 28
26325 32906 32907 28
26326 32906 32908 28
26327 32906 32909 28
26328 32906 32910 28
26329 32911 32912 28
26330 32911 32913 28
26331 32911 32914 28
26332 32911 32915 28
26333 32916 32917 28
26334 32916 32918 28
26335 32916 32919 28
26336 32916 32920 28
26337 32921 32922 28
26338 32921 32923 28
26339 32921 32924 28
26340 32921 32925 28
26341 32926 32927 28
26342 32926 32928 28
26343 32926 32929 28
26344 32926 32930 28
26345 32931 32932 28
26346 32931 32933 28
26347 32931 32934 28
26348 32931 32935 28
26349 32936 32937 28
26350 32936 32938 28
26351 32936 32939 28
26352 32936 32940 28
26353 32941 32942 28
26354 32941 32943 28
26355 32941 32944 28
26356 32941 32945 28
26357 32946 32947 28
26358 32946 32948 28
26359 32946 32949 28
26360 32946 32950 28
26361 32951 32952 28
26362 32951 32953 28
26363 32951 32954 28
26364 32951 32955 28
26365 32956 32957 28
26366 32956 32958 28
26367 32956 32959 28
26368 32956 32960 28
26369 32961 32962 28
26370 32961 32963 28
26371 32961 32964 28
26372 32961 32965 28
26373 32966 32967 28
26374 32966 32968 28
26375 32966 32969 28
26376 32966 32970 28
26377 32971 32972 28
26378 32971 32973 28
26379 32971 32974 28
26380 32971 32975 28
26381 32976 32977 28
26382 32976 32978 28
26383 32976 32979 28
26384 32976 32980 28
26385 32981 32982 28
26386 32981 32983 28
26387 32981 32984 28
26388 32981 32985 28
26389 32986 32987 28
26390 32986 32988 28
26391 32986 32989 28
26392 32986 32990 28
26393 32991 32992 28
26394 32991 32993 28
26395 32991 32994 28
26396 32991 32995 28
26397 32996 32997 28
26398 32996 32998 28
26399 32996 32999 28
26400 32996 33000 28
26401 33001 33002 28
26402 33001 33003 28
26403 33001 33004 28
26404 33001 33005 28
26405 33006 33007 28
26406 33006 33008 28
26407 33006 33009 28
26408 33006 33010 28
26409 33011 33012 28
26410 33011 33013 28
26411 33011 33014 28
26412 33011 33015 28
26413 33016 33017 28
26414 33016 33018 28
26415 33016 33019 28
26416 33016 33020 28
26417 33021 33022 28
26418 33021 33023 28
26419 33021 33024 28
26420 33021 33025 28
26421 33026 33027 28
26422 33026 33028 28
26423 33026 33029 28
26424 33026 33030 28
26425 33031 33032 28
26426 33031 33033 28
26427 33031 33034 28
26428 33031 33035 28
26429 33036 33037 28
26430 33036 33038 28
26431 33036 33039 28
26432 33036 33040 28
26433 33041 33042 28
26434 33041 33043 28
26435 33041 33044 28
26436 33041 33045 28
26437 33046 33047 28
26438 33046 33048 28
26439 33046 33049 28
26440 33046 33050 28
26441 33051 33052 28
26442 33051 33053 28
26443 33051 33054 28
26444 33051 33055 28
26445 33056 33057 28
26446 33056 33058 28
26447 33056 33059 28
26448 33056 33060 28
26449 33061 33062 28
26450 33061 33063 28
26451 33061 33064 28
26452 33061 33065 28
26453 33066 33067 28
26454 33066 33068 28
26455 33066 33069 28
26456 33066 33070 28
26457 33071 33072 28
26458 33071 33073 28
26459 33071 33074 28
26460 33071 33075 28
26461 33076 33077 28
26462 33076 33078 28
26463 33076 33079 28
26464 33076 33080 28
26465 33081 33082 28
26466 33081 33083 28
26467 33081 33084 28
26468 33081 33085 28
26469 33086 33087 28
26470 33086 33088 28
26471 33086 33089 28
26472 33086 33090 28
26473 33091 33092 28
26474 33091 33093 28
26475 33091 33094 28
26476 33091 33095 28
26477 33096 33097 28
26478 33096 33098 28
26479 33096 33099 28
26480 33096 33100 28
26481 33101 33102 28
26482 33101 33103 28
26483 33101 33104 28
26484 33101 33105 28
26485 33106 33107 28
26486 33106 33108 28
26487 33106 33109 28
26488 33106 33110 28
26489 33111 33112 28
26490 33111 33113 28
26491 33111 33114 28
26492 33111 33115 28
26493 33116 33117 28
26494 33116 33118 28
26495 33116 33119 28
26496 33116 33120 28
26497 33121 33122 28
26498 33121 33123 28
26499 33121 33124 28
26500 33121 33125 28
26501 33126 33127 28
26502 33126 33128 28
26503 33126 33129 28
26504 33126 33130 28
26505 33131 33132 28
26506 33131 33133 28
26507 33131 33134 28
26508 33131 33135 28
26509 33136 33137 28
26510 33136 33138 28
26511 33136 33139 28
26512 33136 33140 28
26513 33141 33142 28
26514 33141 33143 28
26515 33141 33144 28
26516 33141 33145 28
26517 33146 33147 28
26518 33146 33148 28
26519 33146 33149 28
26520 33146 33150 28
26521 33151 33152 28
26522 33151 33153 28
26523 33151 33154 28
26524 33151 33155 28
26525 33156 33157 28
26526 33156 33158 28
26527 33156 33159 28
26528 33156 33160 28
26529 33161 33162 28
26530 33161 33163 28
26531 33161 33164 28
26532 33161 33165 28
26533 33166 33167 28
26534 33166 33168 28
26535 33166 33169 28
26536 33166 33170 28
26537 33171 33172 28
26538 33171 33173 28
26539 33171 33174 28
26540 33171 33175 28
26541 33176 33177 28
26542 33176 33178 28
26543 33176 33179 28
26544 33176 33180 28
26545 33181 33182 28
26546 33181 33183 28
26547 33181 33184 28
26548 33181 33185 28
26549 33186 33187 28
26550 33186 33188 28
26551 33186 33189 28
26552 33186 33190 28
26553 33191 33192 28
26554 33191 33193 28
26555 33191 33194 28
26556 33191 33195 28
26557 33196 33197 28
26558 33196 33198 28
26559 33196 33199 28
26560 33196 33200 28
26561 33201 33202 28
26562 33201 33203 28
26563 33201 33204 28
26564 33201 33205 28
26565 33206 33207 28
26566 33206 33208 28
26567 33206 33209 28
26568 33206 33210 28
26569 33211 33212 28
26570 33211 33213 28
26571 33211 33214 28
26572 33211 33215 28
26573 33216 33217 28
26574 33216 33218 28
26575 33216 33219 28
26576 33216 33220 28
26577 33221 33222 28
26578 33221 33223 28
26579 33221 33224 28
26580 33221 33225 28
26581 33226 33227 28
26582 33226 33228 28
26583 33226 33229 28
26584 33226 33230 28
26585 33231 33232 28
26586 33231 33233 28
26587 33231 33234 28
26588 33231 33235 28
26589 33236 33237 28
26590 33236 33238 28
26591 33236 33239 28
26592 33236 33240 28
26593 33241 33242 28
26594 33241 33243 28
26595 33241 33244 28
26596 33241 33245 28
26597 33246 33247 28
26598 33246 33248 28
26599 33246 33249 28
26600 33246 33250 28
26601 33251 33252 28
26602 33251 33253 28
26603 33251 33254 28
26604 33251 33255 28
26605 33256 33257 28
26606 33256 33258 28
26607 33256 33259 28
26608 33256 33260 28
26609 33261 33262 28
26610 33261 33263 28
26611 33261 33264 28
26612 33261 33265 28
26613 33266 33267 28
26614 33266 33268 28
26615 33266 33269 28
26616 33266 33270 28
26617 33271 33272 28
26618 33271 33273 28
26619 33271 33274 28
26620 33271 33275 28
26621 33276 33277 28
26622 33276 33278 28
26623 33276 33279 28
26624 33276 33280 28
26625 33281 33282 28
26626 33281 33283 28
26627 33281 33284 28
26628 33281 33285 28
26629 33286 33287 28
26630 33286 33288 28
26631 33286 33289 28
26632 33286 33290 28
26633 33291 33292 28
26634 33291 33293 28
26635 33291 33294 28
26636 33291 33295 28
26637 33296 33297 28
26638 33296 33298 28
26639 33296 33299 28
26640 33296 33300 28
26641 33301 33302 28
26642 33301 33303 28
26643 33301 33304 28
26644 33301 33305 28
26645 33306 33307 28
26646 33306 33308 28
26647 33306 33309 28
26648 33306 33310 28
26649 33311 33312 28
26650 33311 33313 28
26651 33311 33314 28
26652 33311 33315 28
26653 33316 33317 28
26654 33316 33318 28
26655 33316 33319 28
26656 33316 33320 28
26657 33321 33322 28
26658 33321 33323 28
26659 33321 33324 28
26660 33321 33325 28
26661 33326 33327 28
26662 33326 33328 28
26663 33326 33329 28
26664 33326 33330 28
26665 33331 33332 28
26666 33331 33333 28
26667 33331 33334 28
26668 33331 33335 28
26669 33336 33337 28
26670 33336 33338 28
26671 33336 33339 28
26672 33336 33340 28
26673 33341 33342 28
26674 33341 33343 28
26675 33341 33344 28
26676 33341 33345 28
26677 33346 33347 28
26678 33346 33348 28
26679 33346 33349 28
26680 33346 33350 28
26681 33351 33352 28
26682 33351 33353 28
26683 33351 33354 28
26684 33351 33355 28
26685 33356 33357 28
26686 33356 33358 28
26687 33356 33359 28
26688 33356 33360 28
26689 33361 33362 28
26690 33361 33363 28
26691 33361 33364 28
26692 33361 33365 28
26693 33366 33367 28
26694 33366 33368 28
26695 33366 33369 28
26696 33366 33370 28
26697 33371 33372 28
26698 33371 33373 28
26699 33371 33374 28
26700 33371 33375 28
26701 33376 33377 28
26702 33376 33378 28
26703 33376 33379 28
26704 33376 33380 28
26705 33381 33382 28
26706 33381 33383 28
26707 33381 33384 28
26708 33381 33385 28
26709 33386 33387 28
26710 33386 33388 28
26711 33386 33389 28
26712 33386 33390 28
26713 33391 33392 28
26714 33391 33393 28
26715 33391 33394 28
26716 33391 33395 28
26717 33396 33397 28
26718 33396 33398 28
26719 33396 33399 28
26720 33396 33400 28
26721 33401 33402 28
26722 33401 33403 28
26723 33401 33404 28
26724 33401 33405 28
26725 33406 33407 28
26726 33406 33408 28
26727 33406 33409 28
26728 33406 33410 28
26729 33411 33412 28
26730 33411 33413 28
26731 33411 33414 28
26732 33411 33415 28
26733 33416 33417 28
26734 33416 33418 28
26735 33416 33419 28
26736 33416 33420 28
26737 33421 33422 28
26738 33421 33423 28
26739 33421 33424 28
26740 33421 33425 28
26741 33426 33427 28
26742 33426 33428 28
26743 33426 33429 28
26744 33426 33430 28
26745 33431 33432 28
26746 33431 33433 28
26747 33431 33434 28
26748 33431 33435 28
26749 33436 33437 28
26750 33436 33438 28
26751 33436 33439 28
26752 33436 33440 28
26753 33441 33442 28
26754 33441 33443 28
26755 33441 33444 28
26756 33441 33445 28
26757 33446 33447 28
26758 33446 33448 28
26759 33446 33449 28
26760 33446 33450 28
26761 33451 33452 28
26762 33451 33453 28
26763 33451 33454 28
26764 33451 33455 28
26765 33456 33457 28
26766 33456 33458 28
26767 33456 33459 28
26768 33456 33460 28
26769 33461 33462 28
26770 33461 33463 28
26771 33461 33464 28
26772 33461 33465 28
26773 33466 33467 28
26774 33466 33468 28
26775 33466 33469 28
26776 33466 33470 28
26777 33471 33472 28
26778 33471 33473 28
26779 33471 33474 28
26780 33471 33475 28
26781 33476 33477 28
26782 33476 33478 28
26783 33476 33479 28
26784 33476 33480 28
26785 33481 33482 28
26786 33481 33483 28
26787 33481 33484 28
26788 33481 33485 28
26789 33486 33487 28
26790 33486 33488 28
26791 33486 33489 28
26792 33486 33490 28
26793 33491 33492 28
26794 33491 33493 28
26795 33491 33494 28
26796 33491 33495 28
26797 33496 33497 28
26798 33496 33498 28
26799 33496 33499 28
26800 33496 33500 28
26801 33501 33502 28
26802 33501 33503 28
26803 33501 33504 28
26804 33501 33505 28
26805 33506 33507 28
26806 33506 33508 28
26807 33506 33509 28
26808 33506 33510 28
26809 33511 33512 28
26810 33511 33513 28
26811 33511 33514 28
26812 33511 33515 28
26813 33516 33517 28
26814 33516 33518 28
26815 33516 33519 28
26816 33516 33520 28
26817 33521 33522 28
26818 33521 33523 28
26819 33521 33524 28
26820 33521 33525 28
26821 33526 33527 28
26822 33526 33528 28
26823 33526 33529 28
26824 33526 33530 28
26825 33531 33532 28
26826 33531 33533 28
26827 33531 33534 28
26828 33531 33535 28
26829 33536 33537 28
26830 33536 33538 28
26831 33536 33539 28
26832 33536 33540 28
26833 33541 33542 28
26834 33541 33543 28
26835 33541 33544 28
26836 33541 33545 28
26837 33546 33547 28
26838 33546 33548 28
26839 33546 33549 28
26840 33546 33550 28
26841 33551 33552 28
26842 33551 33553 28
26843 33551 33554 28
26844 33551 33555 28
26845 33556 33557 28
26846 33556 33558 28
26847 33556 33559 28
26848 33556 33560 28
26849 33561 33562 28
26850 33561 33563 28
26851 33561 33564 28
26852 33561 33565 28
26853 33566 33567 28
26854 33566 33568 28
26855 33566 33569 28
26856 33566 33570 28
26857 33571 33572 28
26858 33571 33573 28
26859 33571 33574 28
26860 33571 33575 28
26861 33576 33577 28
26862 33576 33578 28
26863 33576 33579 28
26864 33576 33580 28
26865 33581 33582 28
26866 33581 33583 28
26867 33581 33584 28
26868 33581 33585 28
26869 33586 33587 28
26870 33586 33588 28
26871 33586 33589 28
26872 33586 33590 28
26873 33591 33592 28
26874 33591 33593 28
26875 33591 33594 28
26876 33591 33595 28
26877 33596 33597 28
26878 33596 33598 28
26879 33596 33599 28
26880 33596 33600 28
26881 33601 33602 28
26882 33601 33603 28
26883 33601 33604 28
26884 33601 33605 28
26885 33606 33607 28
26886 33606 33608 28
26887 33606 33609 28
26888 33606 33610 28
26889 33611 33612 28
26890 33611 33613 28
26891 33611 33614 28
26892 33611 33615 28
26893 33616 33617 28
26894 33616 33618 28
26895 33616 33619 28
26896 33616 33620 28
26897 33621 33622 28
26898 33621 33623 28
26899 33621 33624 28
26900 33621 33625 28
26901 33626 33627 28
26902 33626 33628 28
26903 33626 33629 28
26904 33626 33630 28
26905 33631 33632 28
26906 33631 33633 28
26907 33631 33634 28
26908 33631 33635 28
26909 33636 33637 28
26910 33636 33638 28
26911 33636 33639 28
26912 33636 33640 28
26913 33641 33642 28
26914 33641 33643 28
26915 33641 33644 28
26916 33641 33645 28
26917 33646 33647 28
26918 33646 33648 28
26919 33646 33649 28
26920 33646 33650 28
26921 33651 33652 28
26922 33651 33653 28
26923 33651 33654 28
26924 33651 33655 28
26925 33656 33657 28
26926 33656 33658 28
26927 33656 33659 28
26928 33656 33660 28
26929 33661 33662 28
26930 33661 33663 28
26931 33661 33664 28
26932 33661 33665 28
26933 33666 33667 28
26934 33666 33668 28
26935 33666 33669 28
26936 33666 33670 28
26937 33671 33672 28
26938 33671 33673 28
26939 33671 33674 28
26940 33671 33675 28
26941 33676 33677 28
26942 33676 33678 28
26943 33676 33679 28
26944 33676 33680 28
26945 33681 33682 28
26946 33681 33683 28
26947 33681 33684 28
26948 33681 33685 28
26949 33686 33687 28
26950 33686 33688 28
26951 33686 33689 28
26952 33686 33690 28
26953 33691 33692 28
26954 33691 33693 28
26955 33691 33694 28
26956 33691 33695 28
26957 33696 33697 28
26958 33696 33698 28
26959 33696 33699 28
26960 33696 33700 28
26961 33701 33702 28
26962 33701 33703 28
26963 33701 33704 28
26964 33701 33705 28
26965 33706 33707 28
26966 33706 33708 28
26967 33706 33709 28
26968 33706 33710 28
26969 33711 33712 28
26970 33711 33713 28
26971 33711 33714 28
26972 33711 33715 28
26973 33716 33717 28
26974 33716 33718 28
26975 33716 33719 28
26976 33716 33720 28
26977 33721 33722 28
26978 33721 33723 28
26979 33721 33724 28
26980 33721 33725 28
26981 33726 33727 28
26982 33726 33728 28
26983 33726 33729 28
26984 33726 33730 28
26985 33731 33732 28
26986 33731 33733 28
26987 33731 33734 28
26988 33731 33735 28
26989 33736 33737 28
26990 33736 33738 28
26991 33736 33739 28
26992 33736 33740 28
26993 33741 33742 28
26994 33741 33743 28
26995 33741 33744 28
26996 33741 33745 28
26997 33746 33747 28
26998 33746 33748 28
26999 33746 33749 28
27000 33746 33750 28
27001 33751 33752 28
27002 33751 33753 28
27003 33751 33754 28
27004 33751 33755 28
27005 33756 33757 28
27006 33756 33758 28
27007 33756 33759 28
27008 33756 33760 28
27009 33761 33762 28
27010 33761 33763 28
27011 33761 33764 28
27012 33761 33765 28
27013 33766 33767 28
27014 33766 33768 28
27015 33766 33769 28
27016 33766 33770 28
27017 33771 33772 28
27018 33771 33773 28
27019 33771 33774 28
27020 33771 33775 28
27021 33776 33777 28
27022 33776 33778 28
27023 33776 33779 28
27024 33776 33780 28
27025 33781 33782 28
27026 33781 33783 28
27027 33781 33784 28
27028 33781 33785 28
27029 33786 33787 28
27030 33786 33788 28
27031 33786 33789 28
27032 33786 33790 28
27033 33791 33792 28
27034 33791 33793 28
27035 33791 33794 28
27036 33791 33795 28
27037 33796 33797 28
27038 33796 33798 28
27039 33796 33799 28
27040 33796 33800 28
27041 33801 33802 28
27042 33801 33803 28
27043 33801 33804 28
27044 33801 33805 28
27045 33806 33807 28
27046 33806 33808 28
27047 33806 33809 28
27048 33806 33810 28
27049 33811 33812 28
27050 33811 33813 28
27051 33811 33814 28
27052 33811 33815 28
27053 33816 33817 28
27054 33816 33818 28
27055 33816 33819 28
27056 33816 33820 28
27057 33821 33822 28
27058 33821 33823 28
27059 33821 33824 28
27060 33821 33825 28
27061 33826 33827 28
27062 33826 33828 28
27063 33826 33829 28
27064 33826 33830 28
27065 33831 33832 28
27066 33831 33833 28
27067 33831 33834 28
27068 33831 33835 28
27069 33836 33837 28
27070 33836 33838 28
27071 33836 33839 28
27072 33836 33840 28
27073 33841 33842 28
27074 33841 33843 28
27075 33841 33844 28
27076 33841 33845 28
27077 33846 33847 28
27078 33846 33848 28
27079 33846 33849 28
27080 33846 33850 28
27081 33851 33852 28
27082 33851 33853 28
27083 33851 33854 28
27084 33851 33855 28
27085 33856 33857 28
27086 33856 33858 28
27087 33856 33859 28
27088 33856 33860 28
27089 33861 33862 28
27090 33861 33863 28
27091 33861 33864 28
27092 33861 33865 28
27093 33866 33867 28
27094 33866 33868 28
27095 33866 33869 28
27096 33866 33870 28
27097 33871 33872 28
27098 33871 33873 28
27099 33871 33874 28
27100 33871 33875 28
27101 33876 33877 28
27102 33876 33878 28
27103 33876 33879 28
27104 33876 33880 28
27105 33881 33882 28
27106 33881 33883 28
27107 33881 33884 28
27108 33881 33885 28
27109 33886 33887 28
27110 33886 33888 28
27111 33886 33889 28
27112 33886 33890 28
27113 33891 33892 28
27114 33891 33893 28
27115 33891 33894 28
27116 33891 33895 28
27117 33896 33897 28
27118 33896 33898 28
27119 33896 33899 28
27120 33896 33900 28
27121 33901 33902 28
27122 33901 33903 28
27123 33901 33904 28
27124 33901 33905 28
27125 33906 33907 28
27126 33906 33908 28
27127 33906 33909 28
27128 33906 33910 28
27129 33911 33912 28
27130 33911 33913 28
27131 33911 33914 28
27132 33911 33915 28
27133 33916 33917 28
27134 33916 33918 28
27135 33916 33919 28
27136 33916 33920 28
27137 33921 33922 28
27138 33921 33923 28
27139 33921 33924 28
27140 33921 33925 28
27141 33926 33927 28
27142 33926 33928 28
27143 33926 33929 28
27144 33926 33930 28
27145 33931 33932 28
27146 33931 33933 28
27147 33931 33934 28
27148 33931 33935 28
27149 33936 33937 28
27150 33936 33938 28
27151 33936 33939 28
27152 33936 33940 28
27153 33941 33942 28
27154 33941 33943 28
27155 33941 33944 28
27156 33941 33945 28
27157 33946 33947 28
27158 33946 33948 28
27159 33946 33949 28
27160 33946 33950 28
27161 33951 33952 28
27162 33951 33953 28
27163 33951 33954 28
27164 33951 33955 28
27165 33956 33957 28
27166 33956 33958 28
27167 33956 33959 28
27168 33956 33960 28
27169 33961 33962 28
27170 33961 33963 28
27171 33961 33964 28
27172 33961 33965 28
27173 33966 33967 28
27174 33966 33968 28
27175 33966 33969 28
27176 33966 33970 28
27177 33971 33972 28
27178 33971 33973 28
27179 33971 33974 28
27180 33971 33975 28
27181 33976 33977 28
27182 33976 33978 28
27183 33976 33979 28
27184 33976 33980 28
27185 33981 33982 28
27186 33981 33983 28
27187 33981 33984 28
27188 33981 33985 28
27189 33986 33987 28
27190 33986 33988 28
27191 33986 33989 28
27192 33986 33990 28
27193 33991 33992 28
27194 33991 33993 28
27195 33991 33994 28
27196 33991 33995 28
27197 33996 33997 28
27198 33996 33998 28
27199 33996 33999 28
27200 33996 34000 28
27201 34001 34002 28
27202 34001 34003 28
27203 34001 34004 28
27204 34001 34005 28
27205 34006 34007 28
27206 34006 34008 28
27207 34006 34009 28
27208 34006 34010 28
27209 34011 34012 28
27210 34011 34013 28
27211 34011 34014 28
27212 34011 34015 28
27213 34016 34017 28
27214 34016 34018 28
27215 34016 34019 28
27216 34016 34020 28
27217 34021 34022 28
27218 34021 34023 28
27219 34021 34024 28
27220 34021 34025 28
27221 34026 34027 28
27222 34026 34028 28
27223 34026 34029 28
27224 34026 34030 28
27225 34031 34032 28
27226 34031 34033 28
27227 34031 34034 28
27228 34031 34035 28
27229 34036 34037 28
27230 34036 34038 28
27231 34036 34039 28
27232 34036 34040 28
27233 34041 34042 28
27234 34041 34043 28
27235 34041 34044 28
27236 34041 34045 28
27237 34046 34047 28
27238 34046 34048 28
27239 34046 34049 28
27240 34046 34050 28
27241 34051 34052 28
27242 34051 34053 28
27243 34051 34054 28
27244 34051 34055 28
27245 34056 34057 28
27246 34056 34058 28
27247 34056 34059 28
27248 34056 34060 28
27249 34061 34062 28
27250 34061 34063 28
27251 34061 34064 28
27252 34061 34065 28
27253 34066 34067 28
27254 34066 34068 28
27255 34066 34069 28
27256 34066 34070 28
27257 34071 34072 28
27258 34071 34073 28
27259 34071 34074 28
27260 34071 34075 28
27261 34076 34077 28
27262 34076 34078 28
27263 34076 34079 28
27264 34076 34080 28
27265 34081 34082 28
27266 34081 34083 28
27267 34081 34084 28
27268 34081 34085 28
27269 34086 34087 28
27270 34086 34088 28
27271 34086 34089 28
27272 34086 34090 28
27273 34091 34092 28
27274 34091 34093 28
27275 34091 34094 28
27276 34091 34095 28
27277 34096 34097 28
27278 34096 34098 28
27279 34096 34099 28
27280 34096 34100 28
27281 34101 34102 28
27282 34101 34103 28
27283 34101 34104 28
27284 34101 34105 28
27285 34106 34107 28
27286 34106 34108 28
27287 34106 34109 28
27288 34106 34110 28
27289 34111 34112 28
27290 34111 34113 28
27291 34111 34114 28
27292 34111 34115 28
27293 34116 34117 28
27294 34116 34118 28
27295 34116 34119 28
27296 34116 34120 28
27297 34121 34122 28
27298 34121 34123 28
27299 34121 34124 28
27300 34121 34125 28
27301 34126 34127 28
27302 34126 34128 28
27303 34126 34129 28
27304 34126 34130 28
27305 34131 34132 28
27306 34131 34133 28
27307 34131 34134 28
27308 34131 34135 28
27309 34136 34137 28
27310 34136 34138 28
27311 34136 34139 28
27312 34136 34140 28
27313 34141 34142 28
27314 34141 34143 28
27315 34141 34144 28
27316 34141 34145 28
27317 34146 34147 28
27318 34146 34148 28
27319 34146 34149 28
27320 34146 34150 28
27321 34151 34152 28
27322 34151 34153 28
27323 34151 34154 28
27324 34151 34155 28
27325 34156 34157 28
27326 34156 34158 28
27327 34156 34159 28
27328 34156 34160 28
27329 34161 34162 28
27330 34161 34163 28
27331 34161 34164 28
27332 34161 34165 28
27333 34166 34167 28
27334 34166 34168 28
27335 34166 34169 28
27336 34166 34170 28
27337 34171 34172 28
27338 34171 34173 28
27339 34171 34174 28
27340 34171 34175 28
27341 34176 34177 28
27342 34176 34178 28
27343 34176 34179 28
27344 34176 34180 28
27345 34181 34182 28
27346 34181 34183 28
27347 34181 34184 28
27348 34181 34185 28
27349 34186 34187 28
27350 34186 34188 28
27351 34186 34189 28
27352 34186 34190 28
27353 34191 34192 28
27354 34191 34193 28
27355 34191 34194 28
27356 34191 34195 28
27357 34196 34197 28
27358 34196 34198 28
27359 34196 34199 28
27360 34196 34200 28
27361 34201 34202 28
27362 34201 34203 28
27363 34201 34204 28
27364 34201 34205 28
27365 34206 34207 28
27366 34206 34208 28
27367 34206 34209 28
27368 34206 34210 28
27369 34211 34212 28
27370 34211 34213 28
27371 34211 34214 28
27372 34211 34215 28
27373 34216 34217 28
27374 34216 34218 28
27375 34216 34219 28
27376 34216 34220 28
27377 34221 34222 28
27378 34221 34223 28
27379 34221 34224 28
27380 34221 34225 28
27381 34226 34227 28
27382 34226 34228 28
27383 34226 34229 28
27384 34226 34230 28
27385 34231 34232 28
27386 34231 34233 28
27387 34231 34234 28
27388 34231 34235 28
27389 34236 34237 28
27390 34236 34238 28
27391 34236 34239 28
27392 34236 34240 28
27393 34241 34242 28
27394 34241 34243 28
27395 34241 34244 28
27396 34241 34245 28
27397 34246 34247 28
27398 34246 34248 28
27399 34246 34249 28
27400 34246 34250 28
27401 34251 34252 28
27402 34251 34253 28
27403 34251 34254 28
27404 34251 34255 28
27405 34256 34257 28
27406 34256 34258 28
27407 34256 34259 28
27408 34256 34260 28
27409 34261 34262 28
27410 34261 34263 28
27411 34261 34264 28
27412 34261 34265 28
27413 34266 34267 28
27414 34266 34268 28
27415 34266 34269 28
27416 34266 34270 28
27417 34271 34272 28
27418 34271 34273 28
27419 34271 34274 28
27420 34271 34275 28
27421 34276 34277 28
27422 34276 34278 28
27423 34276 34279 28
27424 34276 34280 28
27425 34281 34282 28
27426 34281 34283 28
27427 34281 34284 28
27428 34281 34285 28
27429 34286 34287 28
27430 34286 34288 28
27431 34286 34289 28
27432 34286 34290 28
27433 34291 34292 28
27434 34291 34293 28
27435 34291 34294 28
27436 34291 34295 28
27437 34296 34297 28
27438 34296 34298 28
27439 34296 34299 28
27440 34296 34300 28
27441 34301 34302 28
27442 34301 34303 28
27443 34301 34304 28
27444 34301 34305 28
27445 34306 34307 28
27446 34306 34308 28
27447 34306 34309 28
27448 34306 34310 28
27449 34311 34312 28
27450 34311 34313 28
27451 34311 34314 28
27452 34311 34315 28
27453 34316 34317 28
27454 34316 34318 28
27455 34316 34319 28
27456 34316 34320 28
27457 34321 34322 28
27458 34321 34323 28
27459 34321 34324 28
27460 34321 34325 28
27461 34326 34327 28
27462 34326 34328 28
27463 34326 34329 28
27464 34326 34330 28
27465 34331 34332 28
27466 34331 34333 28
27467 34331 34334 28
27468 34331 34335 28
27469 34336 34337 28
27470 34336 34338 28
27471 34336 34339 28
27472 34336 34340 28
27473 34341 34342 28
27474 34341 34343 28
27475 34341 34344 28
27476 34341 34345 28
27477 34346 34347 28
27478 34346 34348 28
27479 34346 34349 28
27480 34346 34350 28
27481 34351 34352 28
27482 34351 34353 28
27483 34351 34354 28
27484 34351 34355 28
27485 34356 34357 28
27486 34356 34358 28
27487 34356 34359 28
27488 34356 34360 28
27489 34361 34362 28
27490 34361 34363 28
27491 34361 34364 28
27492 34361 34365 28
27493 34366 34367 28
27494 34366 34368 28
27495 34366 34369 28
27496 34366 34370 28
27497 34371 34372 28
27498 34371 34373 28
27499 34371 34374 28
27500 34371 34375 28
27501 34376 34377 28
27502 34376 34378 28
27503 34376 34379 28
27504 34376 34380 28
27505 34381 34382 28
27506 34381 34383 28
27507 34381 34384 28
27508 34381 34385 28
27509 34386 34387 28
27510 34386 34388 28
27511 34386 34389 28
27512 34386 34390 28
27513 34391 34392 28
27514 34391 34393 28
27515 34391 34394 28
27516 34391 34395 28
27517 34396 34397 28
27518 34396 34398 28
27519 34396 34399 28
27520 34396 34400 28
27521 34401 34402 28
27522 34401 34403 28
27523 34401 34404 28
27524 34401 34405 28
27525 34406 34407 28
27526 34406 34408 28
27527 34406 34409 28
27528 34406 34410 28
27529 34411 34412 28
27530 34411 34413 28
27531 34411 34414 28
27532 34411 34415 28
27533 34416 34417 28
27534 34416 34418 28
27535 34416 34419 28
27536 34416 34420 28
27537 34421 34422 28
27538 34421 34423 28
27539 34421 34424 28
27540 34421 34425 28
27541 34426 34427 28
27542 34426 34428 28
27543 34426 34429 28
27544 34426 34430 28
27545 34431 34432 28
27546 34431 34433 28
27547 34431 34434 28
27548 34431 34435 28
27549 34436 34437 28
27550 34436 34438 28
27551 34436 34439 28
27552 34436 34440 28
27553 34441 34442 28
27554 34441 34443 28
27555 34441 34444 28
27556 34441 34445 28
27557 34446 34447 28
27558 34446 34448 28
27559 34446 34449 28
27560 34446 34450 28
27561 34451 34452 28
27562 34451 34453 28
27563 34451 34454 28
27564 34451 34455 28
27565 34456 34457 28
27566 34456 34458 28
27567 34456 34459 28
27568 34456 34460 28
27569 34461 34462 28
27570 34461 34463 28
27571 34461 34464 28
27572 34461 34465 28
27573 34466 34467 28
27574 34466 34468 28
27575 34466 34469 28
27576 34466 34470 28
27577 34471 34472 28
27578 34471 34473 28
27579 34471 34474 28
27580 34471 34475 28
27581 34476 34477 28
27582 34476 34478 28
27583 34476 34479 28
27584 34476 34480 28
27585 34481 34482 28
27586 34481 34483 28
27587 34481 34484 28
27588 34481 34485 28
27589 34486 34487 28
27590 34486 34488 28
27591 34486 34489 28
27592 34486 34490 28
27593 34491 34492 28
27594 34491 34493 28
27595 34491 34494 28
27596 34491 34495 28
27597 34496 34497 28
27598 34496 34498 28
27599 34496 34499 28
27600 34496 34500 28
27601 34501 34502 28
27602 34501 34503 28
27603 34501 34504 28
27604 34501 34505 28
27605 34506 34507 28
27606 34506 34508 28
27607 34506 34509 28
27608 34506 34510 28
27609 34511 34512 28
27610 34511 34513 28
27611 34511 34514 28
27612 34511 34515 28
27613 34516 34517 28
27614 34516 34518 28
27615 34516 34519 28
27616 34516 34520 28
27617 34521 34522 28
27618 34521 34523 28
27619 34521 34524 28
27620 34521 34525 28
27621 34526 34527 28
27622 34526 34528 28
27623 34526 34529 28
27624 34526 34530 28
27625 34531 34532 28
27626 34531 34533 28
27627 34531 34534 28
27628 34531 34535 28
27629 34536 34537 28
27630 34536 34538 28
27631 34536 34539 28
27632 34536 34540 28
27633 34541 34542 28
27634 34541 34543 28
27635 34541 34544 28
27636 34541 34545 28
27637 34546 34547 28
27638 34546 34548 28
27639 34546 34549 28
27640 34546 34550 28
27641 34551 34552 28
27642 34551 34553 28
27643 34551 34554 28
27644 34551 34555 28
27645 34556 34557 28
27646 34556 34558 28
27647 34556 34559 28
27648 34556 34560 28
27649 34561 34562 28
27650 34561 34563 28
27651 34561 34564 28
27652 34561 34565 28
27653 34566 34567 28
27654 34566 34568 28
27655 34566 34569 28
27656 34566 34570 28
27657 34571 34572 28
27658 34571 34573 28
27659 34571 34574 28
27660 34571 34575 28
27661 34576 34577 28
27662 34576 34578 28
27663 34576 34579 28
27664 34576 34580 28
27665 34581 34582 28
27666 34581 34583 28
27667 34581 34584 28
27668 34581 34585 28
27669 34586 34587 28
27670 34586 34588 28
27671 34586 34589 28
27672 34586 34590 28
27673 34591 34592 28
27674 34591 34593 28
27675 34591 34594 28
27676 34591 34595 28
27677 34596 34597 28
27678 34596 34598 28
27679 34596 34599 28
27680 34596 34600 28
27681 34601 34602 28
27682 34601 34603 28
27683 34601 34604 28
27684 34601 34605 28
27685 34606 34607 28
27686 34606 34608 28
27687 34606 34609 28
27688 34606 34610 28
27689 34611 34612 28
27690 34611 34613 28
27691 34611 34614 28
27692 34611 34615 28
27693 34616 34617 28
27694 34616 34618 28
27695 34616 34619 28
27696 34616 34620 28
27697 34621 34622 28
27698 34621 34623 28
27699 34621 34624 28
27700 34621 34625 28
27701 34626 34627 28
27702 34626 34628 28
27703 34626 34629 28
27704 34626 34630 28
27705 34631 34632 28
27706 34631 34633 28
27707 34631 34634 28
27708 34631 34635 28
27709 34636 34637 28
27710 34636 34638 28
27711 34636 34639 28
27712 34636 34640 28
27713 34641 34642 28
27714 34641 34643 28
27715 34641 34644 28
27716 34641 34645 28
27717 34646 34647 28
27718 34646 34648 28
27719 34646 34649 28
27720 34646 34650 28
27721 34651 34652 28
27722 34651 34653 28
27723 34651 34654 28
27724 34651 34655 28
27725 34656 34657 28
27726 34656 34658 28
27727 34656 34659 28
27728 34656 34660 28
27729 34661 34662 28
27730 34661 34663 28
27731 34661 34664 28
27732 34661 34665 28
27733 34666 34667 28
27734 34666 34668 28
27735 34666 34669 28
27736 34666 34670 28
27737 34671 34672 28
27738 34671 34673 28
27739 34671 34674 28
27740 34671 34675 28
27741 34676 34677 28
27742 34676 34678 28
27743 34676 34679 28
27744 34676 34680 28
27745 34681 34682 28
27746 34681 34683 28
27747 34681 34684 28
27748 34681 34685 28
27749 34686 34687 28
27750 34686 34688 28
27751 34686 34689 28
27752 34686 34690 28
27753 34691 34692 28
27754 34691 34693 28
27755 34691 34694 28
27756 34691 34695 28
27757 34696 34697 28
27758 34696 34698 28
27759 34696 34699 28
27760 34696 34700 28
27761 34701 34702 28
27762 34701 34703 28
27763 34701 34704 28
27764 34701 34705 28
27765 34706 34707 28
27766 34706 34708 28
27767 34706 34709 28
27768 34706 34710 28
27769 34711 34712 28
27770 34711 34713 28
27771 34711 34714 28
27772 34711 34715 28
27773 34716 34717 28
27774 34716 34718 28
27775 34716 34719 28
27776 34716 34720 28
27777 34721 34722 28
27778 34721 34723 28
27779 34721 34724 28
27780 34721 34725 28
27781 34726 34727 28
27782 34726 34728 28
27783 34726 34729 28
27784 34726 34730 28
27785 34731 34732 28
27786 34731 34733 28
27787 34731 34734 28
27788 34731 34735 28
27789 34736 34737 28
27790 34736 34738 28
27791 34736 34739 28
27792 34736 34740 28
27793 34741 34742 28
27794 34741 34743 28
27795 34741 34744 28
27796 34741 34745 28
27797 34746 34747 28
27798 34746 34748 28
27799 34746 34749 28
27800 34746 34750 28
27801 34751 34752 28
27802 34751 34753 28
27803 34751 34754 28
27804 34751 34755 28
27805 34756 34757 28
27806 34756 34758 28
27807 34756 34759 28
27808 34756 34760 28
27809 34761 34762 28
27810 34761 34763 28
27811 34761 34764 28
27812 34761 34765 28
27813 34766 34767 28
27814 34766 34768 28
27815 34766 34769 28
27816 34766 34770 28
27817 34771 34772 28
27818 34771 34773 28
27819 34771 34774 28
27820 34771 34775 28
27821 34776 34777 28
27822 34776 34778 28
27823 34776 34779 28
27824 34776 34780 28
27825 34781 34782 28
27826 34781 34783 28
27827 34781 34784 28
27828 34781 34785 28
27829 34786 34787 28
27830 34786 34788 28
27831 34786 34789 28
27832 34786 34790 28
27833 34791 34792 28
27834 34791 34793 28
27835 34791 34794 28
27836 34791 34795 28
27837 34796 34797 28
27838 34796 34798 28
27839 34796 34799 28
27840 34796 34800 28
27841 34801 34802 28
27842 34801 34803 28
27843 34801 34804 28
27844 34801 34805 28
27845 34806 34807 28
27846 34806 34808 28
27847 34806 34809 28
27848 34806 34810 28
27849 34811 34812 28
27850 34811 34813 28
27851 34811 34814 28
27852 34811 34815 28
27853 34816 34817 28
27854 34816 34818 28
27855 34816 34819 28
27856 34816 34820 28
27857 34821 34822 28
27858 34821 34823 28
27859 34821 34824 28
27860 34821 34825 28
27861 34826 34827 28
27862 34826 34828 28
27863 34826 34829 28
27864 34826 34830 28
27865 34831 34832 28
27866 34831 34833 28
27867 34831 34834 28
27868 34831 34835 28
27869 34836 34837 28
27870 34836 34838 28
27871 34836 34839 28
27872 34836 34840 28
27873 34841 34842 28
27874 34841 34843 28
27875 34841 34844 28
27876 34841 34845 28
27877 34846 34847 28
27878 34846 34848 28
27879 34846 34849 28
27880 34846 34850 28
27881 34851 34852 28
27882 34851 34853 28
27883 34851 34854 28
27884 34851 34855 28
27885 34856 34857 28
27886 34856 34858 28
27887 34856 34859 28
27888 34856 34860 28
27889 34861 34862 28
27890 34861 34863 28
27891 34861 34864 28
27892 34861 34865 28
27893 34866 34867 28
27894 34866 34868 28
27895 34866 34869 28
27896 34866 34870 28
27897 34871 34872 28
27898 34871 34873 28
27899 34871 34874 28
27900 34871 34875 28
27901 34876 34877 28
27902 34876 34878 28
27903 34876 34879 28
27904 34876 34880 28
27905 34881 34882 28
27906 34881 34883 28
27907 34881 34884 28
27908 34881 34885 28
27909 34886 34887 28
27910 34886 34888 28
27911 34886 34889 28
27912 34886 34890 28
27913 34891 34892 28
27914 34891 34893 28
27915 34891 34894 28
27916 34891 34895 28
27917 34896 34897 28
27918 34896 34898 28
27919 34896 34899 28
27920 34896 34900 28
27921 34901 34902 28
27922 34901 34903 28
27923 34901 34904 28
27924 34901 34905 28
27925 34906 34907 28
27926 34906 34908 28
27927 34906 34909 28
27928 34906 34910 28
27929 34911 34912 28
27930 34911 34913 28
27931 34911 34914 28
27932 34911 34915 28
27933 34916 34917 28
27934 34916 34918 28
27935 34916 34919 28
27936 34916 34920 28
27937 34921 34922 28
27938 34921 34923 28
27939 34921 34924 28
27940 34921 34925 28
27941 34926 34927 28
27942 34926 34928 28
27943 34926 34929 28
27944 34926 34930 28
27945 34931 34932 28
27946 34931 34933 28
27947 34931 34934 28
27948 34931 34935 28
27949 34936 34937 28
27950 34936 34938 28
27951 34936 34939 28
27952 34936 34940 28
27953 34941 34942 28
27954 34941 34943 28
27955 34941 34944 28
27956 34941 34945 28
27957 34946 34947 28
27958 34946 34948 28
27959 34946 34949 28
27960 34946 34950 28
27961 34951 34952 28
27962 34951 34953 28
27963 34951 34954 28
27964 34951 34955 28
27965 34956 34957 28
27966 34956 34958 28
27967 34956 34959 28
27968 34956 34960 28
27969 34961 34962 28
27970 34961 34963 28
27971 34961 34964 28
27972 34961 34965 28
27973 34966 34967 28
27974 34966 34968 28
27975 34966 34969 28
27976 34966 34970 28
27977 34971 34972 28
27978 34971 34973 28
27979 34971 34974 28
27980 34971 34975 28
27981 34976 34977 28
27982 34976 34978 28
27983 34976 34979 28
27984 34976 34980 28
27985 34981 34982 28
27986 34981 34983 28
27987 34981 34984 28
27988 34981 34985 28
27989 34986 34987 28
27990 34986 34988 28
27991 34986 34989 28
27992 34986 34990 28
27993 34991 34992 28
27994 34991 34993 28
27995 34991 34994 28
27996 34991 34995 28
27997 34996 34997 28
27998 34996 34998 28
27999 34996 34999 28
28000 34996 35000 28
28001 35001 35002 28
28002 35001 35003 28
28003 35001 35004 28
28004 35001 35005 28
28005 35006 35007 28
28006 35006 35008 28
28007 35006 35009 28
28008 35006 35010 28
28009 35011 35012 28
28010 35011 35013 28
28011 35011 35014 28
28012 35011 35015 28
28013 35016 35017 28
28014 35016 35018 28
28015 35016 35019 28
28016 35016 35020 28
28017 35021 35022 28
28018 35021 35023 28
28019 35021 35024 28
28020 35021 35025 28
28021 35026 35027 28
28022 35026 35028 28
28023 35026 35029 28
28024 35026 35030 28
28025 35031 35032 28
28026 35031 35033 28
28027 35031 35034 28
28028 35031 35035 28
28029 35036 35037 28
28030 35036 35038 28
28031 35036 35039 28
28032 35036 35040 28
28033 35041 35042 28
28034 35041 35043 28
28035 35041 35044 28
28036 35041 35045 28
28037 35046 35047 28
28038 35046 35048 28
28039 35046 35049 28
28040 35046 35050 28
28041 35051 35052 28
28042 35051 35053 28
28043 35051 35054 28
28044 35051 35055 28
28045 35056 35057 28
28046 35056 35058 28
28047 35056 35059 28
28048 35056 35060 28
28049 35061 35062 28
28050 35061 35063 28
28051 35061 35064 28
28052 35061 35065 28
28053 35066 35067 28
28054 35066 35068 28
28055 35066 35069 28
28056 35066 35070 28
28057 35071 35072 28
28058 35071 35073 28
28059 35071 35074 28
28060 35071 35075 28
28061 35076 35077 28
28062 35076 35078 28
28063 35076 35079 28
28064 35076 35080 28
28065 35081 35082 28
28066 35081 35083 28
28067 35081 35084 28
28068 35081 35085 28
28069 35086 35087 28
28070 35086 35088 28
28071 35086 35089 28
28072 35086 35090 28
28073 35091 35092 28
28074 35091 35093 28
28075 35091 35094 28
28076 35091 35095 28
28077 35096 35097 28
28078 35096 35098 28
28079 35096 35099 28
28080 35096 35100 28
28081 35101 35102 28
28082 35101 35103 28
28083 35101 35104 28
28084 35101 35105 28
28085 35106 35107 28
28086 35106 35108 28
28087 35106 35109 28
28088 35106 35110 28
28089 35111 35112 28
28090 35111 35113 28
28091 35111 35114 28
28092 35111 35115 28
28093 35116 35117 28
28094 35116 35118 28
28095 35116 35119 28
28096 35116 35120 28
28097 35121 35122 28
28098 35121 35123 28
28099 35121 35124 28
28100 35121 35125 28
28101 35126 35127 28
28102 35126 35128 28
28103 35126 35129 28
28104 35126 35130 28
28105 35131 35132 28
28106 35131 35133 28
28107 35131 35134 28
28108 35131 35135 28
28109 35136 35137 28
28110 35136 35138 28
28111 35136 35139 28
28112 35136 35140 28
28113 35141 35142 28
28114 35141 35143 28
28115 35141 35144 28
28116 35141 35145 28
28117 35146 35147 28
28118 35146 35148 28
28119 35146 35149 28
28120 35146 35150 28
28121 35151 35152 28
28122 35151 35153 28
28123 35151 35154 28
28124 35151 35155 28
28125 35156 35157 28
28126 35156 35158 28
28127 35156 35159 28
28128 35156 35160 28
28129 35161 35162 28
28130 35161 35163 28
28131 35161 35164 28
28132 35161 35165 28
28133 35166 35167 28
28134 35166 35168 28
28135 35166 35169 28
28136 35166 35170 28
28137 35171 35172 28
28138 35171 35173 28
28139 35171 35174 28
28140 35171 35175 28
28141 35176 35177 28
28142 35176 35178 28
28143 35176 35179 28
28144 35176 35180 28
28145 35181 35182 28
28146 35181 35183 28
28147 35181 35184 28
28148 35181 35185 28
28149 35186 35187 28
28150 35186 35188 28
28151 35186 35189 28
28152 35186 35190 28
28153 35191 35192 28
28154 35191 35193 28
28155 35191 35194 28
28156 35191 35195 28
28157 35196 35197 28
28158 35196 35198 28
28159 35196 35199 28
28160 35196 35200 28
28161 35201 35202 28
28162 35201 35203 28
28163 35201 35204 28
28164 35201 35205 28
28165 35206 35207 28
28166 35206 35208 28
28167 35206 35209 28
28168 35206 35210 28
28169 35211 35212 28
28170 35211 35213 28
28171 35211 35214 28
28172 35211 35215 28
28173 35216 35217 28
28174 35216 35218 28
28175 35216 35219 28
28176 35216 35220 28
28177 35221 35222 28
28178 35221 35223 28
28179 35221 35224 28
28180 35221 35225 28
28181 35226 35227 28
28182 35226 35228 28
28183 35226 35229 28
28184 35226 35230 28
28185 35231 35232 28
28186 35231 35233 28
28187 35231 35234 28
28188 35231 35235 28
28189 35236 35237 28
28190 35236 35238 28
28191 35236 35239 28
28192 35236 35240 28
28193 35241 35242 28
28194 35241 35243 28
28195 35241 35244 28
28196 35241 35245 28
28197 35246 35247 28
28198 35246 35248 28
28199 35246 35249 28
28200 35246 35250 28
28201 35251 35252 28
28202 35251 35253 28
28203 35251 35254 28
28204 35251 35255 28
28205 35256 35257 28
28206 35256 35258 28
28207 35256 35259 28
28208 35256 35260 28
28209 35261 35262 28
28210 35261 35263 28
28211 35261 35264 28
28212 35261 35265 28
28213 35266 35267 28
28214 35266 35268 28
28215 35266 35269 28
28216 35266 35270 28
28217 35271 35272 28
28218 35271 35273 28
28219 35271 35274 28
28220 35271 35275 28
28221 35276 35277 28
28222 35276 35278 28
28223 35276 35279 28
28224 35276 35280 28
28225 35281 35282 28
28226 35281 35283 28
28227 35281 35284 28
28228 35281 35285 28
28229 35286 35287 28
28230 35286 35288 28
28231 35286 35289 28
28232 35286 35290 28
28233 35291 35292 28
28234 35291 35293 28
28235 35291 35294 28
28236 35291 35295 28
28237 35296 35297 28
28238 35296 35298 28
28239 35296 35299 28
28240 35296 35300 28
28241 35301 35302 28
28242 35301 35303 28
28243 35301 35304 28
28244 35301 35305 28
28245 35306 35307 28
28246 35306 35308 28
28247 35306 35309 28
28248 35306 35310 28
28249 35311 35312 28
28250 35311 35313 28
28251 35311 35314 28
28252 35311 35315 28
28253 35316 35317 28
28254 35316 35318 28
28255 35316 35319 28
28256 35316 35320 28
28257 35321 35322 28
28258 35321 35323 28
28259 35321 35324 28
28260 35321 35325 28
28261 35326 35327 28
28262 35326 35328 28
28263 35326 35329 28
28264 35326 35330 28
28265 35331 35332 28
28266 35331 35333 28
28267 35331 35334 28
28268 35331 35335 28
28269 35336 35337 28
28270 35336 35338 28
28271 35336 35339 28
28272 35336 35340 28
28273 35341 35342 28
28274 35341 35343 28
28275 35341 35344 28
28276 35341 35345 28
28277 35346 35347 28
28278 35346 35348 28
28279 35346 35349 28
28280 35346 35350 28
28281 35351 35352 28
28282 35351 35353 28
28283 35351 35354 28
28284 35351 35355 28
28285 35356 35357 28
28286 35356 35358 28
28287 35356 35359 28
28288 35356 35360 28
28289 35361 35362 28
28290 35361 35363 28
28291 35361 35364 28
28292 35361 35365 28
28293 35366 35367 28
28294 35366 35368 28
28295 35366 35369 28
28296 35366 35370 28
28297 35371 35372 28
28298 35371 35373 28
28299 35371 35374 28
28300 35371 35375 28
28301 35376 35377 28
28302 35376 35378 28
28303 35376 35379 28
28304 35376 35380 28
28305 35381 35382 28
28306 35381 35383 28
28307 35381 35384 28
28308 35381 35385 28
28309 35386 35387 28
28310 35386 35388 28
28311 35386 35389 28
28312 35386 35390 28
28313 35391 35392 28
28314 35391 35393 28
28315 35391 35394 28
28316 35391 35395 28
28317 35396 35397 28
28318 35396 35398 28
28319 35396 35399 28
28320 35396 35400 28
28321 35401 35402 28
28322 35401 35403 28
28323 35401 35404 28
28324 35401 35405 28
28325 35406 35407 28
28326 35406 35408 28
28327 35406 35409 28
28328 35406 35410 28
28329 35411 35412 28
28330 35411 35413 28
28331 35411 35414 28
28332 35411 35415 28
28333 35416 35417 28
28334 35416 35418 28
28335 35416 35419 28
28336 35416 35420 28
28337 35421 35422 28
28338 35421 35423 28
28339 35421 35424 28
28340 35421 35425 28
28341 35426 35427 28
28342 35426 35428 28
28343 35426 35429 28
28344 35426 35430 28
28345 35431 35432 28
28346 35431 35433 28
28347 35431 35434 28
28348 35431 35435 28
28349 35436 35437 28
28350 35436 35438 28
28351 35436 35439 28
28352 35436 35440 28
28353 35441 35442 28
28354 35441 35443 28
28355 35441 35444 28
28356 35441 35445 28
28357 35446 35447 28
28358 35446 35448 28
28359 35446 35449 28
28360 35446 35450 28
28361 35451 35452 28
28362 35451 35453 28
28363 35451 35454 28
28364 35451 35455 28
28365 35456 35457 28
28366 35456 35458 28
28367 35456 35459 28
28368 35456 35460 28
28369 35461 35462 28
28370 35461 35463 28
28371 35461 35464 28
28372 35461 35465 28
28373 35466 35467 28
28374 35466 35468 28
28375 35466 35469 28
28376 35466 35470 28
28377 35471 35472 28
28378 35471 35473 28
28379 35471 35474 28
28380 35471 35475 28
28381 35476 35477 28
28382 35476 35478 28
28383 35476 35479 28
28384 35476 35480 28
28385 35481 35482 28
28386 35481 35483 28
28387 35481 35484 28
28388 35481 35485 28
28389 35486 35487 28
28390 35486 35488 28
28391 35486 35489 28
28392 35486 35490 28
28393 35491 35492 28
28394 35491 35493 28
28395 35491 35494 28
28396 35491 35495 28
28397 35496 35497 28
28398 35496 35498 28
28399 35496 35499 28
28400 35496 35500 28
28401 35501 35502 28
28402 35501 35503 28
28403 35501 35504 28
28404 35501 35505 28
28405 35506 35507 28
28406 35506 35508 28
28407 35506 35509 28
28408 35506 35510 28
28409 35511 35512 28
28410 35511 35513 28
28411 35511 35514 28
28412 35511 35515 28
28413 35516 35517 28
28414 35516 35518 28
28415 35516 35519 28
28416 35516 35520 28
28417 35521 35522 28
28418 35521 35523 28
28419 35521 35524 28
28420 35521 35525 28
28421 35526 35527 28
28422 35526 35528 28
28423 35526 35529 28
28424 35526 35530 28
28425 35531 35532 28
28426 35531 35533 28
28427 35531 35534 28
28428 35531 35535 28
28429 35536 35537 28
28430 35536 35538 28
28431 35536 35539 28
28432 35536 35540 28
28433 35541 35542 28
28434 35541 35543 28
28435 35541 35544 28
28436 35541 35545 28
28437 35546 35547 28
28438 35546 35548 28
28439 35546 35549 28
28440 35546 35550 28
28441 35551 35552 28
28442 35551 35553 28
28443 35551 35554 28
28444 35551 35555 28
28445 35556 35557 28
28446 35556 35558 28
28447 35556 35559 28
28448 35556 35560 28
28449 35561 35562 28
28450 35561 35563 28
28451 35561 35564 28
28452 35561 35565 28
28453 35566 35567 28
28454 35566 35568 28
28455 35566 35569 28
28456 35566 35570 28
28457 35571 35572 28
28458 35571 35573 28
28459 35571 35574 28
28460 35571 35575 28
28461 35576 35577 28
28462 35576 35578 28
28463 35576 35579 28
28464 35576 35580 28
28465 35581 35582 28
28466 35581 35583 28
28467 35581 35584 28
28468 35581 35585 28
28469 35586 35587 28
28470 35586 35588 28
28471 35586 35589 28
28472 35586 35590 28
28473 35591 35592 28
28474 35591 35593 28
28475 35591 35594 28
28476 35591 35595 28
28477 35596 35597 28
28478 35596 35598 28
28479 35596 35599 28
28480 35596 35600 28
28481 35601 35602 28
28482 35601 35603 28
28483 35601 35604 28
28484 35601 35605 28
28485 35606 35607 28
28486 35606 35608 28
28487 35606 35609 28
28488 35606 35610 28
28489 35611 35612 28
28490 35611 35613 28
28491 35611 35614 28
28492 35611 35615 28
28493 35616 35617 28
28494 35616 35618 28
28495 35616 35619 28
28496 35616 35620 28
28497 35621 35622 28
28498 35621 35623 28
28499 35621 35624 28
28500 35621 35625 28
28501 35626 35627 28
28502 35626 35628 28
28503 35626 35629 28
28504 35626 35630 28
28505 35631 35632 28
28506 35631 35633 28
28507 35631 35634 28
28508 35631 35635 28
28509 35636 35637 28
28510 35636 35638 28
28511 35636 35639 28
28512 35636 35640 28
28513 35641 35642 28
28514 35641 35643 28
28515 35641 35644 28
28516 35641 35645 28
28517 35646 35647 28
28518 35646 35648 28
28519 35646 35649 28
28520 35646 35650 28
28521 35651 35652 28
28522 35651 35653 28
28523 35651 35654 28
28524 35651 35655 28
28525 35656 35657 28
28526 35656 35658 28
28527 35656 35659 28
28528 35656 35660 28
28529 35661 35662 28
28530 35661 35663 28
28531 35661 35664 28
28532 35661 35665 28
28533 35666 35667 28
28534 35666 35668 28
28535 35666 35669 28
28536 35666 35670 28
28537 35671 35672 28
28538 35671 35673 28
28539 35671 35674 28
28540 35671 35675 28
28541 35676 35677 28
28542 35676 35678 28
28543 35676 35679 28
28544 35676 35680 28
28545 35681 35682 28
28546 35681 35683 28
28547 35681 35684 28
28548 35681 35685 28
28549 35686 35687 28
28550 35686 35688 28
28551 35686 35689 28
28552 35686 35690 28
28553 35691 35692 28
28554 35691 35693 28
28555 35691 35694 28
28556 35691 35695 28
28557 35696 35697 28
28558 35696 35698 28
28559 35696 35699 28
28560 35696 35700 28
28561 35701 35702 28
28562 35701 35703 28
28563 35701 35704 28
28564 35701 35705 28
28565 35706 35707 28
28566 35706 35708 28
28567 35706 35709 28
28568 35706 35710 28
28569 35711 35712 28
28570 35711 35713 28
28571 35711 35714 28
28572 35711 35715 28
28573 35716 35717 28
28574 35716 35718 28
28575 35716 35719 28
28576 35716 35720 28
28577 35721 35722 28
28578 35721 35723 28
28579 35721 35724 28
28580 35721 35725 28
28581 35726 35727 28
28582 35726 35728 28
28583 35726 35729 28
28584 35726 35730 28
28585 35731 35732 28
28586 35731 35733 28
28587 35731 35734 28
28588 35731 35735 28
28589 35736 35737 28
28590 35736 35738 28
28591 35736 35739 28
28592 35736 35740 28
28593 35741 35742 28
28594 35741 35743 28
28595 35741 35744 28
28596 35741 35745 28
28597 35746 35747 28
28598 35746 35748 28
28599 35746 35749 28
28600 35746 35750 28
28601 35751 35752 28
28602 35751 35753 28
28603 35751 35754 28
28604 35751 35755 28
28605 35756 35757 28
28606 35756 35758 28
28607 35756 35759 28
28608 35756 35760 28
28609 35761 35762 28
28610 35761 35763 28
28611 35761 35764 28
28612 35761 35765 28
28613 35766 35767 28
28614 35766 35768 28
28615 35766 35769 28
28616 35766 35770 28
28617 35771 35772 28
28618 35771 35773 28
28619 35771 35774 28
28620 35771 35775 28
28621 35776 35777 28
28622 35776 35778 28
28623 35776 35779 28
28624 35776 35780 28
28625 35781 35782 28
28626 35781 35783 28
28627 35781 35784 28
28628 35781 35785 28
28629 35786 35787 28
28630 35786 35788 28
28631 35786 35789 28
28632 35786 35790 28
28633 35791 35792 28
28634 35791 35793 28
28635 35791 35794 28
28636 35791 35795 28
28637 35796 35797 28
28638 35796 35798 28
28639 35796 35799 28
28640 35796 35800 28
28641 35801 35802 28
28642 35801 35803 28
28643 35801 35804 28
28644 35801 35805 28
28645 35806 35807 28
28646 35806 35808 28
28647 35806 35809 28
28648 35806 35810 28
28649 35811 35812 28
28650 35811 35813 28
28651 35811 35814 28
28652 35811 35815 28
28653 35816 35817 28
28654 35816 35818 28
28655 35816 35819 28
28656 35816 35820 28
28657 35821 35822 28
28658 35821 35823 28
28659 35821 35824 28
28660 35821 35825 28
28661 35826 35827 28
28662 35826 35828 28
28663 35826 35829 28
28664 35826 35830 28
28665 35831 35832 28
28666 35831 35833 28
28667 35831 35834 28
28668 35831 35835 28
28669 35836 35837 28
28670 35836 35838 28
28671 35836 35839 28
28672 35836 35840 28
28673 35841 35842 28
28674 35841 35843 28
28675 35841 35844 28
28676 35841 35845 28
28677 35846 35847 28
28678 35846 35848 28
28679 35846 35849 28
28680 35846 35850 28
28681 35851 35852 28
28682 35851 35853 28
28683 35851 35854 28
28684 35851 35855 28
28685 35856 35857 28
28686 35856 35858 28
28687 35856 35859 28
28688 35856 35860 28
28689 35861 35862 28
28690 35861 35863 28
28691 35861 35864 28
28692 35861 35865 28
28693 35866 35867 28
28694 35866 35868 28
28695 35866 35869 28
28696 35866 35870 28
28697 35871 35872 28
28698 35871 35873 28
28699 35871 35874 28
28700 35871 35875 28
28701 35876 35877 28
28702 35876 35878 28
28703 35876 35879 28
28704 35876 35880 28
28705 35881 35882 28
28706 35881 35883 28
28707 35881 35884 28
28708 35881 35885 28
28709 35886 35887 28
28710 35886 35888 28
28711 35886 35889 28
28712 35886 35890 28
28713 35891 35892 28
28714 35891 35893 28
28715 35891 35894 28
28716 35891 35895 28
28717 35896 35897 28
28718 35896 35898 28
28719 35896 35899 28
28720 35896 35900 28
28721 35901 35902 28
28722 35901 35903 28
28723 35901 35904 28
28724 35901 35905 28
28725 35906 35907 28
28726 35906 35908 28
28727 35906 35909 28
28728 35906 35910 28
28729 35911 35912 28
28730 35911 35913 28
28731 35911 35914 28
28732 35911 35915 28
28733 35916 35917 28
28734 35916 35918 28
28735 35916 35919 28
28736 35916 35920 28
28737 35921 35922 28
28738 35921 35923 28
28739 35921 35924 28
28740 35921 35925 28
28741 35926 35927 28
28742 35926 35928 28
28743 35926 35929 28
28744 35926 35930 28
28745 35931 35932 28
28746 35931 35933 28
28747 35931 35934 28
28748 35931 35935 28
28749 35936 35937 28
28750 35936 35938 28
28751 35936 35939 28
28752 35936 35940 28
28753 35941 35942 28
28754 35941 35943 28
28755 35941 35944 28
28756 35941 35945 28
28757 35946 35947 28
28758 35946 35948 28
28759 35946 35949 28
28760 35946 35950 28
28761 35951 35952 28
28762 35951 35953 28
28763 35951 35954 28
28764 35951 35955 28
28765 35956 35957 28
28766 35956 35958 28
28767 35956 35959 28
28768 35956 35960 28
28769 35961 35962 28
28770 35961 35963 28
28771 35961 35964 28
28772 35961 35965 28
28773 35966 35967 28
28774 35966 35968 28
28775 35966 35969 28
28776 35966 35970 28
28777 35971 35972 28
28778 35971 35973 28
28779 35971 35974 28
28780 35971 35975 28
28781 35976 35977 28
28782 35976 35978 28
28783 35976 35979 28
28784 35976 35980 28
28785 35981 35982 28
28786 35981 35983 28
28787 35981 35984 28
28788 35981 35985 28
28789 35986 35987 28
28790 35986 35988 28
28791 35986 35989 28
28792 35986 35990 28
28793 35991 35992 28
28794 35991 35993 28
28795 35991 35994 28
28796 35991 35995 28
28797 35996 35997 28
28798 35996 35998 28
28799 35996 35999 28
28800 35996 36000 28
28801 36001 36002 28
28802 36001 36003 28
28803 36001 36004 28
28804 36001 36005 28
28805 36006 36007 28
28806 36006 36008 28
28807 36006 36009 28
28808 36006 36010 28
28809 36011 36012 28
28810 36011 36013 28
28811 36011 36014 28
28812 36011 36015 28
28813 36016 36017 28
28814 36016 36018 28
28815 36016 36019 28
28816 36016 36020 28
28817 36021 36022 28
28818 36021 36023 28
28819 36021 36024 28
28820 36021 36025 28
28821 36026 36027 28
28822 36026 36028 28
28823 36026 36029 28
28824 36026 36030 28
28825 36031 36032 28
28826 36031 36033 28
28827 36031 36034 28
28828 36031 36035 28
28829 36036 36037 28
28830 36036 36038 28
28831 36036 36039 28
28832 36036 36040 28
28833 36041 36042 28
28834 36041 36043 28
28835 36041 36044 28
28836 36041 36045 28
28837 36046 36047 28
28838 36046 36048 28
28839 36046 36049 28
28840 36046 36050 28
28841 36051 36052 28
28842 36051 36053 28
28843 36051 36054 28
28844 36051 36055 28
28845 36056 36057 28
28846 36056 36058 28
28847 36056 36059 28
28848 36056 36060 28
28849 36061 36062 28
28850 36061 36063 28
28851 36061 36064 28
28852 36061 36065 28
28853 36066 36067 28
28854 36066 36068 28
28855 36066 36069 28
28856 36066 36070 28
28857 36071 36072 28
28858 36071 36073 28
28859 36071 36074 28
28860 36071 36075 28
28861 36076 36077 28
28862 36076 36078 28
28863 36076 36079 28
28864 36076 36080 28
28865 36081 36082 28
28866 36081 36083 28
28867 36081 36084 28
28868 36081 36085 28
28869 36086 36087 28
28870 36086 36088 28
28871 36086 36089 28
28872 36086 36090 28
28873 36091 36092 28
28874 36091 36093 28
28875 36091 36094 28
28876 36091 36095 28
28877 36096 36097 28
28878 36096 36098 28
28879 36096 36099 28
28880 36096 36100 28
28881 36101 36102 28
28882 36101 36103 28
28883 36101 36104 28
28884 36101 36105 28
28885 36106 36107 28
28886 36106 36108 28
28887 36106 36109 28
28888 36106 36110 28
28889 36111 36112 28
28890 36111 36113 28
28891 36111 36114 28
28892 36111 36115 28
28893 36116 36117 28
28894 36116 36118 28
28895 36116 36119 28
28896 36116 36120 28
28897 36121 36122 28
28898 36121 36123 28
28899 36121 36124 28
28900 36121 36125 28
28901 36126 36127 28
28902 36126 36128 28
28903 36126 36129 28
28904 36126 36130 28
28905 36131 36132 28
28906 36131 36133 28
28907 36131 36134 28
28908 36131 36135 28
28909 36136 36137 28
28910 36136 36138 28
28911 36136 36139 28
28912 36136 36140 28
28913 36141 36142 28
28914 36141 36143 28
28915 36141 36144 28
28916 36141 36145 28
28917 36146 36147 28
28918 36146 36148 28
28919 36146 36149 28
28920 36146 36150 28
28921 36151 36152 28
28922 36151 36153 28
28923 36151 36154 28
28924 36151 36155 28
28925 36156 36157 28
28926 36156 36158 28
28927 36156 36159 28
28928 36156 36160 28
28929 36161 36162 28
28930 36161 36163 28
28931 36161 36164 28
28932 36161 36165 28
28933 36166 36167 28
28934 36166 36168 28
28935 36166 36169 28
28936 36166 36170 28
28937 36171 36172 28
28938 36171 36173 28
28939 36171 36174 28
28940 36171 36175 28
28941 36176 36177 28
28942 36176 36178 28
28943 36176 36179 28
28944 36176 36180 28
28945 36181 36182 28
28946 36181 36183 28
28947 36181 36184 28
28948 36181 36185 28
28949 36186 36187 28
28950 36186 36188 28
28951 36186 36189 28
28952 36186 36190 28
28953 36191 36192 28
28954 36191 36193 28
28955 36191 36194 28
28956 36191 36195 28
28957 36196 36197 28
28958 36196 36198 28
28959 36196 36199 28
28960 36196 36200 28
28961 36201 36202 28
28962 36201 36203 28
28963 36201 36204 28
28964 36201 36205 28
28965 36206 36207 28
28966 36206 36208 28
28967 36206 36209 28
28968 36206 36210 28
28969 36211 36212 28
28970 36211 36213 28
28971 36211 36214 28
28972 36211 36215 28
28973 36216 36217 28
28974 36216 36218 28
28975 36216 36219 28
28976 36216 36220 28
28977 36221 36222 28
28978 36221 36223 28
28979 36221 36224 28
28980 36221 36225 28
28981 36226 36227 28
28982 36226 36228 28
28983 36226 36229 28
28984 36226 36230 28
28985 36231 36232 28
28986 36231 36233 28
28987 36231 36234 28
28988 36231 36235 28
28989 36236 36237 28
28990 36236 36238 28
28991 36236 36239 28
28992 36236 36240 28
28993 36241 36242 28
28994 36241 36243 28
28995 36241 36244 28
28996 36241 36245 28
28997 36246 36247 28
28998 36246 36248 28
28999 36246 36249 28
29000 36246 36250 28
29001 36251 36252 28
29002 36251 36253 28
29003 36251 36254 28
29004 36251 36255 28
29005 36256 36257 28
29006 36256 36258 28
29007 36256 36259 28
29008 36256 36260 28
29009 36261 36262 28
29010 36261 36263 28
29011 36261 36264 28
29012 36261 36265 28
29013 36266 36267 28
29014 36266 36268 28
29015 36266 36269 28
29016 36266 36270 28
29017 36271 36272 28
29018 36271 36273 28
29019 36271 36274 28
29020 36271 36275 28
29021 36276 36277 28
29022 36276 36278 28
29023 36276 36279 28
29024 36276 36280 28
29025 36281 36282 28
29026 36281 36283 28
29027 36281 36284 28
29028 36281 36285 28
29029 36286 36287 28
29030 36286 36288 28
29031 36286 36289 28
29032 36286 36290 28
29033 36291 36292 28
29034 36291 36293 28
29035 36291 36294 28
29036 36291 36295 28
29037 36296 36297 28
29038 36296 36298 28
29039 36296 36299 28
29040 36296 36300 28
29041 36301 36302 28
29042 36301 36303 28
29043 36301 36304 28
29044 36301 36305 28
29045 36306 36307 28
29046 36306 36308 28
29047 36306 36309 28
29048 36306 36310 28
29049 36311 36312 28
29050 36311 36313 28
29051 36311 36314 28
29052 36311 36315 28
29053 36316 36317 28
29054 36316 36318 28
29055 36316 36319 28
29056 36316 36320 28
29057 36321 36322 28
29058 36321 36323 28
29059 36321 36324 28
29060 36321 36325 28
29061 36326 36327 28
29062 36326 36328 28
29063 36326 36329 28
29064 36326 36330 28
29065 36331 36332 28
29066 36331 36333 28
29067 36331 36334 28
29068 36331 36335 28
29069 36336 36337 28
29070 36336 36338 28
29071 36336 36339 28
29072 36336 36340 28
29073 36341 36342 28
29074 36341 36343 28
29075 36341 36344 28
29076 36341 36345 28
29077 36346 36347 28
29078 36346 36348 28
29079 36346 36349 28
29080 36346 36350 28
29081 36351 36352 28
29082 36351 36353 28
29083 36351 36354 28
29084 36351 36355 28
29085 36356 36357 28
29086 36356 36358 28
29087 36356 36359 28
29088 36356 36360 28
29089 36361 36362 28
29090 36361 36363 28
29091 36361 36364 28
29092 36361 36365 28
29093 36366 36367 28
29094 36366 36368 28
29095 36366 36369 28
29096 36366 36370 28
29097 36371 36372 28
29098 36371 36373 28
29099 36371 36374 28
29100 36371 36375 28
29101 36376 36377 28
29102 36376 36378 28
29103 36376 36379 28
29104 36376 36380 28
29105 36381 36382 28
29106 36381 36383 28
29107 36381 36384 28
29108 36381 36385 28
29109 36386 36387 28
29110 36386 36388 28
29111 36386 36389 28
29112 36386 36390 28
29113 36391 36392 28
29114 36391 36393 28
29115 36391 36394 28
29116 36391 36395 28
29117 36396 36397 28
29118 36396 36398 28
29119 36396 36399 28
29120 36396 36400 28
29121 36401 36402 28
29122 36401 36403 28
29123 36401 36404 28
29124 36401 36405 28
29125 36406 36407 28
29126 36406 36408 28
29127 36406 36409 28
29128 36406 36410 28
29129 36411 36412 28
29130 36411 36413 28
29131 36411 36414 28
29132 36411 36415 28
29133 36416 36417 28
29134 36416 36418 28
29135 36416 36419 28
29136 36416 36420 28
29137 36421 36422 28
29138 36421 36423 28
29139 36421 36424 28
29140 36421 36425 28
29141 36426 36427 28
29142 36426 36428 28
29143 36426 36429 28
29144 36426 36430 28
29145 36431 36432 28
29146 36431 36433 28
29147 36431 36434 28
29148 36431 36435 28
29149 36436 36437 28
29150 36436 36438 28
29151 36436 36439 28
29152 36436 36440 28
29153 36441 36442 28
29154 36441 36443 28
29155 36441 36444 28
29156 36441 36445 28
29157 36446 36447 28
29158 36446 36448 28
29159 36446 36449 28
29160 36446 36450 28
29161 36451 36452 28
29162 36451 36453 28
29163 36451 36454 28
29164 36451 36455 28
29165 36456 36457 28
29166 36456 36458 28
29167 36456 36459 28
29168 36456 36460 28
29169 36461 36462 28
29170 36461 36463 28
29171 36461 36464 28
29172 36461 36465 28
29173 36466 36467 28
29174 36466 36468 28
29175 36466 36469 28
29176 36466 36470 28
29177 36471 36472 28
29178 36471 36473 28
29179 36471 36474 28
29180 36471 36475 28
29181 36476 36477 28
29182 36476 36478 28
29183 36476 36479 28
29184 36476 36480 28
29185 36481 36482 28
29186 36481 36483 28
29187 36481 36484 28
29188 36481 36485 28
29189 36486 36487 28
29190 36486 36488 28
29191 36486 36489 28
29192 36486 36490 28
29193 36491 36492 28
29194 36491 36493 28
29195 36491 36494 28
29196 36491 36495 28
29197 36496 36497 28
29198 36496 36498 28
29199 36496 36499 28
29200 36496 36500 28
29201 36501 36502 28
29202 36501 36503 28
29203 36501 36504 28
29204 36501 36505 28
29205 36506 36507 28
29206 36506 36508 28
29207 36506 36509 28
29208 36506 36510 28
29209 36511 36512 28
29210 36511 36513 28
29211 36511 36514 28
29212 36511 36515 28
29213 36516 36517 28
29214 36516 36518 28
29215 36516 36519 28
29216 36516 36520 28
29217 36521 36522 28
29218 36521 36523 28
29219 36521 36524 28
29220 36521 36525 28
29221 36526 36527 28
29222 36526 36528 28
29223 36526 36529 28
29224 36526 36530 28
29225 36531 36532 28
29226 36531 36533 28
29227 36531 36534 28
29228 36531 36535 28
29229 36536 36537 28
29230 36536 36538 28
29231 36536 36539 28
29232 36536 36540 28
29233 36541 36542 28
29234 36541 36543 28
29235 36541 36544 28
29236 36541 36545 28
29237 36546 36547 28
29238 36546 36548 28
29239 36546 36549 28
29240 36546 36550 28
29241 36551 36552 28
29242 36551 36553 28
29243 36551 36554 28
29244 36551 36555 28
29245 36556 36557 28
29246 36556 36558 28
29247 36556 36559 28
29248 36556 36560 28
29249 36561 36562 28
29250 36561 36563 28
29251 36561 36564 28
29252 36561 36565 28
29253 36566 36567 28
29254 36566 36568 28
29255 36566 36569 28
29256 36566 36570 28
29257 36571 36572 28
29258 36571 36573 28
29259 36571 36574 28
29260 36571 36575 28
29261 36576 36577 28
29262 36576 36578 28
29263 36576 36579 28
29264 36576 36580 28
29265 36581 36582 28
29266 36581 36583 28
29267 36581 36584 28
29268 36581 36585 28
29269 36586 36587 28
29270 36586 36588 28
29271 36586 36589 28
29272 36586 36590 28
29273 36591 36592 28
29274 36591 36593 28
29275 36591 36594 28
29276 36591 36595 28
29277 36596 36597 28
29278 36596 36598 28
29279 36596 36599 28
29280 36596 36600 28
29281 36601 36602 28
29282 36601 36603 28
29283 36601 36604 28
29284 36601 36605 28
29285 36606 36607 28
29286 36606 36608 28
29287 36606 36609 28
29288 36606 36610 28
29289 36611 36612 28
29290 36611 36613 28
29291 36611 36614 28
29292 36611 36615 28
29293 36616 36617 28
29294 36616 36618 28
29295 36616 36619 28
29296 36616 36620 28
29297 36621 36622 28
29298 36621 36623 28
29299 36621 36624 28
29300 36621 36625 28
29301 36626 36627 28
29302 36626 36628 28
29303 36626 36629 28
29304 36626 36630 28
29305 36631 36632 28
29306 36631 36633 28
29307 36631 36634 28
29308 36631 36635 28
29309 36636 36637 28
29310 36636 36638 28
29311 36636 36639 28
29312 36636 36640 28
29313 36641 36642 28
29314 36641 36643 28
29315 36641 36644 28
29316 36641 36645 28
29317 36646 36647 28
29318 36646 36648 28
29319 36646 36649 28
29320 36646 36650 28
29321 36651 36652 28
29322 36651 36653 28
29323 36651 36654 28
29324 36651 36655 28
29325 36656 36657 28
29326 36656 36658 28
29327 36656 36659 28
29328 36656 36660 28
29329 36661 36662 28
29330 36661 36663 28
29331 36661 36664 28
29332 36661 36665 28
29333 36666 36667 28
29334 36666 36668 28
29335 36666 36669 28
29336 36666 36670 28
29337 36671 36672 28
29338 36671 36673 28
29339 36671 36674 28
29340 36671 36675 28
29341 36676 36677 28
29342 36676 36678 28
29343 36676 36679 28
29344 36676 36680 28
29345 36681 36682 28
29346 36681 36683 28
29347 36681 36684 28
29348 36681 36685 28
29349 36686 36687 28
29350 36686 36688 28
29351 36686 36689 28
29352 36686 36690 28
29353 36691 36692 28
29354 36691 36693 28
29355 36691 36694 28
29356 36691 36695 28
29357 36696 36697 28
29358 36696 36698 28
29359 36696 36699 28
29360 36696 36700 28
29361 36701 36702 28
29362 36701 36703 28
29363 36701 36704 28
29364 36701 36705 28
29365 36706 36707 28
29366 36706 36708 28
29367 36706 36709 28
29368 36706 36710 28
29369 36711 36712 28
29370 36711 36713 28
29371 36711 36714 28
29372 36711 36715 28
29373 36716 36717 28
29374 36716 36718 28
29375 36716 36719 28
29376 36716 36720 28
29377 36721 36722 28
29378 36721 36723 28
29379 36721 36724 28
29380 36721 36725 28
29381 36726 36727 28
29382 36726 36728 28
29383 36726 36729 28
29384 36726 36730 28
29385 36731 36732 28
29386 36731 36733 28
29387 36731 36734 28
29388 36731 36735 28
29389 36736 36737 28
29390 36736 36738 28
29391 36736 36739 28
29392 36736 36740 28
29393 36741 36742 28
29394 36741 36743 28
29395 36741 36744 28
29396 36741 36745 28
29397 36746 36747 28
29398 36746 36748 28
29399 36746 36749 28
29400 36746 36750 28
29401 36751 36752 28
29402 36751 36753 28
29403 36751 36754 28
29404 36751 36755 28
29405 36756 36757 28
29406 36756 36758 28
29407 36756 36759 28
29408 36756 36760 28
29409 36761 36762 28
29410 36761 36763 28
29411 36761 36764 28
29412 36761 36765 28
29413 36766 36767 28
29414 36766 36768 28
29415 36766 36769 28
29416 36766 36770 28
29417 36771 36772 28
29418 36771 36773 28
29419 36771 36774 28
29420 36771 36775 28
29421 36776 36777 28
29422 36776 36778 28
29423 36776 36779 28
29424 36776 36780 28
29425 36781 36782 28
29426 36781 36783 28
29427 36781 36784 28
29428 36781 36785 28
29429 36786 36787 28
29430 36786 36788 28
29431 36786 36789 28
29432 36786 36790 28
29433 36791 36792 28
29434 36791 36793 28
29435 36791 36794 28
29436 36791 36795 28
29437 36796 36797 28
29438 36796 36798 28
29439 36796 36799 28
29440 36796 36800 28
29441 36801 36802 28
29442 36801 36803 28
29443 36801 36804 28
29444 36801 36805 28
29445 36806 36807 28
29446 36806 36808 28
29447 36806 36809 28
29448 36806 36810 28
29449 36811 36812 28
29450 36811 36813 28
29451 36811 36814 28
29452 36811 36815 28
29453 36816 36817 28
29454 36816 36818 28
29455 36816 36819 28
29456 36816 36820 28
29457 36821 36822 28
29458 36821 36823 28
29459 36821 36824 28
29460 36821 36825 28
29461 36826 36827 28
29462 36826 36828 28
29463 36826 36829 28
29464 36826 36830 28
29465 36831 36832 28
29466 36831 36833 28
29467 36831 36834 28
29468 36831 36835 28
29469 36836 36837 28
29470 36836 36838 28
29471 36836 36839 28
29472 36836 36840 28
29473 36841 36842 28
29474 36841 36843 28
29475 36841 36844 28
29476 36841 36845 28
29477 36846 36847 28
29478 36846 36848 28
29479 36846 36849 28
29480 36846 36850 28
29481 36851 36852 28
29482 36851 36853 28
29483 36851 36854 28
29484 36851 36855 28
29485 36856 36857 28
29486 36856 36858 28
29487 36856 36859 28
29488 36856 36860 28
29489 36861 36862 28
29490 36861 36863 28
29491 36861 36864 28
29492 36861 36865 28
29493 36866 36867 28
29494 36866 36868 28
29495 36866 36869 28
29496 36866 36870 28
29497 36871 36872 28
29498 36871 36873 28
29499 36871 36874 28
29500 36871 36875 28
29501 36876 36877 28
29502 36876 36878 28
29503 36876 36879 28
29504 36876 36880 28
29505 36881 36882 28
29506 36881 36883 28
29507 36881 36884 28
29508 36881 36885 28
29509 36886 36887 28
29510 36886 36888 28
29511 36886 36889 28
29512 36886 36890 28
29513 36891 36892 28
29514 36891 36893 28
29515 36891 36894 28
29516 36891 36895 28
29517 36896 36897 28
29518 36896 36898 28
29519 36896 36899 28
29520 36896 36900 28
29521 36901 36902 28
29522 36901 36903 28
29523 36901 36904 28
29524 36901 36905 28
29525 36906 36907 28
29526 36906 36908 28
29527 36906 36909 28
29528 36906 36910 28
29529 36911 36912 28
29530 36911 36913 28
29531 36911 36914 28
29532 36911 36915 28
29533 36916 36917 28
29534 36916 36918 28
29535 36916 36919 28
29536 36916 36920 28
29537 36921 36922 28
29538 36921 36923 28
29539 36921 36924 28
29540 36921 36925 28
29541 36926 36927 28
29542 36926 36928 28
29543 36926 36929 28
29544 36926 36930 28
29545 36931 36932 28
29546 36931 36933 28
29547 36931 36934 28
29548 36931 36935 28
29549 36936 36937 28
29550 36936 36938 28
29551 36936 36939 28
29552 36936 36940 28
29553 36941 36942 28
29554 36941 36943 28
29555 36941 36944 28
29556 36941 36945 28
29557 36946 36947 28
29558 36946 36948 28
29559 36946 36949 28
29560 36946 36950 28
29561 36951 36952 28
29562 36951 36953 28
29563 36951 36954 28
29564 36951 36955 28
29565 36956 36957 28
29566 36956 36958 28
29567 36956 36959 28
29568 36956 36960 28
29569 36961 36962 28
29570 36961 36963 28
29571 36961 36964 28
29572 36961 36965 28
29573 36966 36967 28
29574 36966 36968 28
29575 36966 36969 28
29576 36966 36970 28
29577 36971 36972 28
29578 36971 36973 28
29579 36971 36974 28
29580 36971 36975 28
29581 36976 36977 28
29582 36976 36978 28
29583 36976 36979 28
29584 36976 36980 28
29585 36981 36982 28
29586 36981 36983 28
29587 36981 36984 28
29588 36981 36985 28
29589 36986 36987 28
29590 36986 36988 28
29591 36986 36989 28
29592 36986 36990 28
29593 36991 36992 28
29594 36991 36993 28
29595 36991 36994 28
29596 36991 36995 28
29597 36996 36997 28
29598 36996 36998 28
29599 36996 36999 28
29600 36996 37000 28
29601 37001 37002 28
29602 37001 37003 28
29603 37001 37004 28
29604 37001 37005 28
29605 37006 37007 28
29606 37006 37008 28
29607 37006 37009 28
29608 37006 37010 28
29609 37011 37012 28
29610 37011 37013 28
29611 37011 37014 28
29612 37011 37015 28
29613 37016 37017 28
29614 37016 37018 28
29615 37016 37019 28
29616 37016 37020 28
29617 37021 37022 28
29618 37021 37023 28
29619 37021 37024 28
29620 37021 37025 28
29621 37026 37027 28
29622 37026 37028 28
29623 37026 37029 28
29624 37026 37030 28
29625 37031 37032 28
29626 37031 37033 28
29627 37031 37034 28
29628 37031 37035 28
29629 37036 37037 28
29630 37036 37038 28
29631 37036 37039 28
29632 37036 37040 28
29633 37041 37042 28
29634 37041 37043 28
29635 37041 37044 28
29636 37041 37045 28
29637 37046 37047 28
29638 37046 37048 28
29639 37046 37049 28
29640 37046 37050 28
29641 37051 37052 28
29642 37051 37053 28
29643 37051 37054 28
29644 37051 37055 28
29645 37056 37057 28
29646 37056 37058 28
29647 37056 37059 28
29648 37056 37060 28
29649 37061 37062 28
29650 37061 37063 28
29651 37061 37064 28
29652 37061 37065 28
29653 37066 37067 28
29654 37066 37068 28
29655 37066 37069 28
29656 37066 37070 28
29657 37071 37072 28
29658 37071 37073 28
29659 37071 37074 28
29660 37071 37075 28
29661 37076 37077 28
29662 37076 37078 28
29663 37076 37079 28
29664 37076 37080 28
29665 37081 37082 28
29666 37081 37083 28
29667 37081 37084 28
29668 37081 37085 28
29669 37086 37087 28
29670 37086 37088 28
29671 37086 37089 28
29672 37086 37090 28
29673 37091 37092 28
29674 37091 37093 28
29675 37091 37094 28
29676 37091 37095 28
29677 37096 37097 28
29678 37096 37098 28
29679 37096 37099 28
29680 37096 37100 28
29681 37101 37102 28
29682 37101 37103 28
29683 37101 37104 28
29684 37101 37105 28
29685 37106 37107 28
29686 37106 37108 28
29687 37106 37109 28
29688 37106 37110 28
29689 37111 37112 28
29690 37111 37113 28
29691 37111 37114 28
29692 37111 37115 28
29693 37116 37117 28
29694 37116 37118 28
29695 37116 37119 28
29696 37116 37120 28
29697 37121 37122 28
29698 37121 37123 28
29699 37121 37124 28
29700 37121 37125 28
29701 37126 37127 28
29702 37126 37128 28
29703 37126 37129 28
29704 37126 37130 28
29705 37131 37132 28
29706 37131 37133 28
29707 37131 37134 28
29708 37131 37135 28
29709 37136 37137 28
29710 37136 37138 28
29711 37136 37139 28
29712 37136 37140 28
29713 37141 37142 28
29714 37141 37143 28
29715 37141 37144 28
29716 37141 37145 28
29717 37146 37147 28
29718 37146 37148 28
29719 37146 37149 28
29720 37146 37150 28
29721 37151 37152 28
29722 37151 37153 28
29723 37151 37154 28
29724 37151 37155 28
29725 37156 37157 28
29726 37156 37158 28
29727 37156 37159 28
29728 37156 37160 28
29729 37161 37162 28
29730 37161 37163 28
29731 37161 37164 28
29732 37161 37165 28
29733 37166 37167 28
29734 37166 37168 28
29735 37166 37169 28
29736 37166 37170 28
29737 37171 37172 28
29738 37171 37173 28
29739 37171 37174 28
29740 37171 37175 28
29741 37176 37177 28
29742 37176 37178 28
29743 37176 37179 28
29744 37176 37180 28
29745 37181 37182 28
29746 37181 37183 28
29747 37181 37184 28
29748 37181 37185 28
29749 37186 37187 28
29750 37186 37188 28
29751 37186 37189 28
29752 37186 37190 28
29753 37191 37192 28
29754 37191 37193 28
29755 37191 37194 28
29756 37191 37195 28
29757 37196 37197 28
29758 37196 37198 28
29759 37196 37199 28
29760 37196 37200 28
29761 37201 37202 28
29762 37201 37203 28
29763 37201 37204 28
29764 37201 37205 28
29765 37206 37207 28
29766 37206 37208 28
29767 37206 37209 28
29768 37206 37210 28
29769 37211 37212 28
29770 37211 37213 28
29771 37211 37214 28
29772 37211 37215 28
29773 37216 37217 28
29774 37216 37218 28
29775 37216 37219 28
29776 37216 37220 28
29777 37221 37222 28
29778 37221 37223 28
29779 37221 37224 28
29780 37221 37225 28
29781 37226 37227 28
29782 37226 37228 28
29783 37226 37229 28
29784 37226 37230 28
29785 37231 37232 28
29786 37231 37233 28
29787 37231 37234 28
29788 37231 37235 28
29789 37236 37237 28
29790 37236 37238 28
29791 37236 37239 28
29792 37236 37240 28
29793 37241 37242 28
29794 37241 37243 28
29795 37241 37244 28
29796 37241 37245 28
29797 37246 37247 28
29798 37246 37248 28
29799 37246 37249 28
29800 37246 37250 28
29801 37251 37252 28
29802 37251 37253 28
29803 37251 37254 28
29804 37251 37255 28
29805 37256 37257 28
29806 37256 37258 28
29807 37256 37259 28
29808 37256 37260 28
29809 37261 37262 28
29810 37261 37263 28
29811 37261 37264 28
29812 37261 37265 28
29813 37266 37267 28
29814 37266 37268 28
29815 37266 37269 28
29816 37266 37270 28
29817 37271 37272 28
29818 37271 37273 28
29819 37271 37274 28
29820 37271 37275 28
29821 37276 37277 28
29822 37276 37278 28
29823 37276 37279 28
29824 37276 37280 28
29825 37281 37282 28
29826 37281 37283 28
29827 37281 37284 28
29828 37281 37285 28
29829 37286 37287 28
29830 37286 37288 28
29831 37286 37289 28
29832 37286 37290 28
29833 37291 37292 28
29834 37291 37293 28
29835 37291 37294 28
29836 37291 37295 28
29837 37296 37297 28
29838 37296 37298 28
29839 37296 37299 28
29840 37296 37300 28
29841 37301 37302 28
29842 37301 37303 28
29843 37301 37304 28
29844 37301 37305 28
29845 37306 37307 28
29846 37306 37308 28
29847 37306 37309 28
29848 37306 37310 28
29849 37311 37312 28
29850 37311 37313 28
29851 37311 37314 28
29852 37311 37315 28
29853 37316 37317 28
29854 37316 37318 28
29855 37316 37319 28
29856 37316 37320 28
29857 37321 37322 28
29858 37321 37323 28
29859 37321 37324 28
29860 37321 37325 28
29861 37326 37327 28
29862 37326 37328 28
29863 37326 37329 28
29864 37326 37330 28
29865 37331 37332 28
29866 37331 37333 28
29867 37331 37334 28
29868 37331 37335 28
29869 37336 37337 28
29870 37336 37338 28
29871 37336 37339 28
29872 37336 37340 28
29873 37341 37342 28
29874 37341 37343 28
29875 37341 37344 28
29876 37341 37345 28
29877 37346 37347 28
29878 37346 37348 28
29879 37346 37349 28
29880 37346 37350 28
29881 37351 37352 28
29882 37351 37353 28
29883 37351 37354 28
29884 37351 37355 28
29885 37356 37357 28
29886 37356 37358 28
29887 37356 37359 28
29888 37356 37360 28
29889 37361 37362 28
29890 37361 37363 28
29891 37361 37364 28
29892 37361 37365 28
29893 37366 37367 28
29894 37366 37368 28
29895 37366 37369 28
29896 37366 37370 28
29897 37371 37372 28
29898 37371 37373 28
29899 37371 37374 28
29900 37371 37375 28
29901 37376 37377 28
29902 37376 37378 28
29903 37376 37379 28
29904 37376 37380 28
29905 37381 37382 28
29906 37381 37383 28
29907 37381 37384 28
29908 37381 37385 28
29909 37386 37387 28
29910 37386 37388 28
29911 37386 37389 28
29912 37386 37390 28
29913 37391 37392 28
29914 37391 37393 28
29915 37391 37394 28
29916 37391 37395 28
29917 37396 37397 28
29918 37396 37398 28
29919 37396 37399 28
29920 37396 37400 28
29921 37401 37402 28
29922 37401 37403 28
29923 37401 37404 28
29924 37401 37405 28
29925 37406 37407 28
29926 37406 37408 28
29927 37406 37409 28
29928 37406 37410 28
29929 37411 37412 28
29930 37411 37413 28
29931 37411 37414 28
29932 37411 37415 28
29933 37416 37417 28
29934 37416 37418 28
29935 37416 37419 28
29936 37416 37420 28
29937 37421 37422 28
29938 37421 37423 28
29939 37421 37424 28
29940 37421 37425 28
29941 37426 37427 28
29942 37426 37428 28
29943 37426 37429 28
29944 37426 37430 28
29945 37431 37432 28
29946 37431 37433 28
29947 37431 37434 28
29948 37431 37435 28
29949 37436 37437 28
29950 37436 37438 28
29951 37436 37439 28
29952 37436 37440 28
29953 37441 37442 28
29954 37441 37443 28
29955 37441 37444 28
29956 37441 37445 28
29957 37446 37447 28
29958 37446 37448 28
29959 37446 37449 28
29960 37446 37450 28
29961 37451 37452 28
29962 37451 37453 28
29963 37451 37454 28
29964 37451 37455 28
29965 37456 37457 28
29966 37456 37458 28
29967 37456 37459 28
29968 37456 37460 28
29969 37461 37462 28
29970 37461 37463 28
29971 37461 37464 28
29972 37461 37465 28
29973 37466 37467 28
29974 37466 37468 28
29975 37466 37469 28
29976 37466 37470 28
29977 37471 37472 28
29978 37471 37473 28
29979 37471 37474 28
29980 37471 37475 28
29981 37476 37477 28
29982 37476 37478 28
29983 37476 37479 28
29984 37476 37480 28
29985 37481 37482 28
29986 37481 37483 28
29987 37481 37484 28
29988 37481 37485 28
29989 37486 37487 28
29990 37486 37488 28
29991 37486 37489 28
29992 37486 37490 28
29993 37491 37492 28
29994 37491 37493 28
29995 37491 37494 28
29996 37491 37495 28
29997 37496 37497 28
29998 37496 37498 28
29999 37496 37499 28
30000 37496 37500 28
@<TRIPOS>CRYSIN
115.91563905532934 115.91563905532934 115.91563905532934 90 90 90 1 1
